@<TRIPOS>MOLECULE
tmp/10gsA00.pdb
 168 162 0 0 0
SMALL
GASTEIGER

@<TRIPOS>ATOM
      1  N         16.1960    2.5040   34.6570 N.3     6  TYR6       -0.1227
      2  CA        15.2260    2.3310   33.5850 C.3     6  TYR6        0.1736
      3  C         14.0670    1.4270   33.9930 C.2     6  TYR6        0.2595
      4  O         14.0970    0.7890   35.0420 O.2     6  TYR6       -0.2718
      5  CB        15.9540    1.7350   32.3720 C.3     6  TYR6        0.0548
      6  CG        15.2020    1.8100   31.0640 C.ar    6  TYR6       -0.0200
      7  CD1       14.7130    3.0250   30.5800 C.ar    6  TYR6       -0.0009
      8  CD2       14.9950    0.6650   30.2970 C.ar    6  TYR6       -0.0009
      9  CE1       14.0360    3.0950   29.3630 C.ar    6  TYR6        0.0417
     10  CE2       14.3230    0.7230   29.0830 C.ar    6  TYR6        0.0417
     11  CZ        13.8460    1.9380   28.6210 C.ar    6  TYR6        0.1957
     12  OH        13.1800    1.9970   27.4190 O.3     6  TYR6       -0.2866
     13  N         13.0410    1.3880   33.1520 N.am    7  PHE7       -0.1976
     14  CA        11.8700    0.5510   33.3840 C.3     7  PHE7        0.1639
     15  C         12.2650   -0.9020   33.1110 C.2     7  PHE7        0.2290
     16  O         13.2970   -1.1570   32.4960 O.2     7  PHE7       -0.2864
     17  CB        10.7420    0.9900   32.4540 C.3     7  PHE7        0.0560
     18  CG        10.3440    2.4260   32.6350 C.ar    7  PHE7       -0.0200
     19  CD1        9.6550    2.8330   33.7770 C.ar    7  PHE7       -0.0042
     20  CD2       10.6800    3.3800   31.6790 C.ar    7  PHE7       -0.0042
     21  CE1        9.3060    4.1710   33.9660 C.ar    7  PHE7       -0.0003
     22  CE2       10.3370    4.7240   31.8560 C.ar    7  PHE7       -0.0003
     23  CZ         9.6490    5.1200   33.0020 C.ar    7  PHE7       -0.0000
     24  N         12.1250   -3.1230   30.9490 N.3     9  VAL9       -0.1245
     25  CA        11.9690   -3.4890   29.5410 C.3     9  VAL9        0.1561
     26  C         13.3120   -3.2890   28.8500 C.2     9  VAL9        0.2260
     27  O         14.2140   -2.6610   29.4070 O.2     9  VAL9       -0.2867
     28  CB        10.9060   -2.6130   28.8100 C.3     9  VAL9        0.0252
     29  CG1        9.5500   -2.7240   29.4930 C.3     9  VAL9        0.0019
     30  CG2       11.3590   -1.1600   28.7430 C.3     9  VAL9        0.0019
     31  N         13.6920   -1.9330   25.5850 N.3    11  GLY11      -0.1210
     32  CA        13.5460   -0.6120   24.9950 C.3    11  GLY11       0.1956
     33  C         14.8050    0.0950   24.5390 C.2    11  GLY11       0.2611
     34  O         15.6150   -0.4640   23.7940 O.2    11  GLY11      -0.2717
     35  N         14.9930    1.3150   25.0320 N.am   12  ARG12      -0.1979
     36  CA        16.1520    2.1210   24.6670 C.3    12  ARG12       0.1597
     37  C         17.4520    1.8190   25.4060 C.2    12  ARG12       0.2287
     38  O         18.4320    2.5510   25.2560 O.2    12  ARG12      -0.2864
     39  CB        15.8150    3.6110   24.7710 C.3    12  ARG12       0.0334
     40  CG        14.8960    4.0980   23.6620 C.3    12  ARG12       0.0492
     41  CD        14.6940    5.5960   23.7360 C.3    12  ARG12       0.2205
     42  NE        13.9870    6.1170   22.5680 N.pl3  12  ARG12      -0.0865
     43  CZ        14.5840    6.5020   21.4440 C.cat  12  ARG12       0.5346
     44  NH1       15.9040    6.4170   21.3200 N.pl3  12  ARG12       0.1354
     45  NH2       13.8560    6.9650   20.4380 N.pl3  12  ARG12       0.1354
     46  N          6.4210    1.0720   36.9610 N.3    34  VAL34      -0.1245
     47  CA         5.4300    2.0460   36.5030 C.3    34  VAL34       0.1561
     48  C          4.7630    2.7440   37.6960 C.2    34  VAL34       0.2260
     49  O          4.3520    3.9000   37.5990 O.2    34  VAL34      -0.2867
     50  CB         4.3450    1.3670   35.6240 C.3    34  VAL34       0.0252
     51  CG1        3.4640    0.4360   36.4710 C.3    34  VAL34       0.0019
     52  CG2        3.5080    2.4150   34.9050 C.3    34  VAL34       0.0019
     53  N          7.2390    5.3640   39.1720 N.3    37  TRP37      -0.1227
     54  CA         7.3050    6.4590   38.2030 C.3    37  TRP37       0.1737
     55  C          6.0960    7.3930   38.3000 C.2    37  TRP37       0.2595
     56  O          6.2490    8.6170   38.2780 O.2    37  TRP37      -0.2718
     57  CB         7.4280    5.8960   36.7800 C.3    37  TRP37       0.0564
     58  CG         7.6610    6.9310   35.7010 C.ar   37  TRP37       0.0003
     59  CD1        6.7900    7.2980   34.7150 C.ar   37  TRP37       0.0946
     60  CD2        8.8590    7.6930   35.4850 C.ar   37  TRP37       0.0152
     61  NE1        7.3690    8.2350   33.8970 N.ar   37  TRP37      -0.2442
     62  CE2        8.6380    8.4980   34.3440 C.ar   37  TRP37       0.0810
     63  CE3       10.0970    7.7730   36.1380 C.ar   37  TRP37       0.0012
     64  CZ2        9.6110    9.3720   33.8420 C.ar   37  TRP37       0.0191
     65  CZ3       11.0650    8.6410   35.6390 C.ar   37  TRP37       0.0001
     66  CH2       10.8130    9.4290   34.5010 C.ar   37  TRP37       0.0015
     67  N          4.9020    6.8130   38.4210 N.am   38  GLN38      -0.1979
     68  CA         3.6760    7.5990   38.5230 C.3    38  GLN38       0.1601
     69  C          3.5510    8.3670   39.8360 C.2    38  GLN38       0.2287
     70  O          2.6900    9.2360   39.9720 O.2    38  GLN38      -0.2864
     71  CB         2.4560    6.7150   38.2880 C.3    38  GLN38       0.0394
     72  CG         2.3540    6.2330   36.8500 C.3    38  GLN38       0.0908
     73  CD         1.2920    5.1730   36.6480 C.2    38  GLN38       0.2608
     74  OE1        0.7970    4.5780   37.6070 O.2    38  GLN38      -0.2717
     75  NE2        0.9430    4.9220   35.3920 N.am   38  GLN38      -0.0878
     76  N         10.4940   11.4150   38.1840 N.3    43  LYS43      -0.1245
     77  CA        10.2470   12.0710   36.9010 C.3    43  LYS43       0.1561
     78  C         10.6120   13.5510   36.9690 C.2    43  LYS43       0.2260
     79  O         11.2500   14.0860   36.0620 O.2    43  LYS43      -0.2867
     80  CB         8.7750   11.9390   36.5160 C.3    43  LYS43       0.0271
     81  CG         8.4600   12.4090   35.1050 C.3    43  LYS43       0.0035
     82  CD         6.9640   12.5580   34.8870 C.3    43  LYS43       0.0206
     83  CE         6.5720   12.2690   33.4440 C.3    43  LYS43       0.1093
     84  NZ         7.4550   12.9400   32.4490 N.3    43  LYS43      -0.1314
     85  N         12.4130   14.7710   32.0430 N.3    49  GLY49      -0.1210
     86  CA        11.2880   14.0330   32.5980 C.3    49  GLY49       0.1956
     87  C         11.1470   12.6220   32.0610 C.2    49  GLY49       0.2612
     88  O         10.0430   12.0680   32.0510 O.2    49  GLY49      -0.2717
     89  N         12.2540   12.0360   31.6080 N.am   50  GLN50      -0.1965
     90  CA        12.2150   10.6860   31.0590 C.3    50  GLN50       0.1733
     91  C         13.4370    9.8430   31.4050 C.2    50  GLN50       0.2616
     92  O         14.4580   10.3580   31.8650 O.2    50  GLN50      -0.2715
     93  CB        12.0790   10.7380   29.5340 C.3    50  GLN50       0.0408
     94  CG        10.7890   11.3400   29.0170 C.3    50  GLN50       0.0908
     95  CD        10.6090   11.1320   27.5290 C.2    50  GLN50       0.2608
     96  OE1        9.5670   10.6630   27.0800 O.2    50  GLN50      -0.2717
     97  NE2       11.6400   11.4520   26.7580 N.am   50  GLN50      -0.0878
     98  N         13.3000    8.5350   31.1940 N.am   51  LEU51      -0.1964
     99  CA        14.3780    7.5750   31.4170 C.3    51  LEU51       0.1713
    100  C         14.7440    7.0290   30.0280 C.2    51  LEU51       0.2458
    101  O         13.9420    7.1140   29.1010 O.2    51  LEU51      -0.2730
    102  CB        13.9060    6.4490   32.3460 C.3    51  LEU51       0.0310
    103  CG        13.5590    6.8530   33.7870 C.3    51  LEU51       0.0022
    104  CD1       13.0120    5.6540   34.5540 C.3    51  LEU51       0.0001
    105  CD2       14.7870    7.4220   34.4910 C.3    51  LEU51       0.0001
    106  N         15.9160    6.3930   29.8790 N.am   52  PRO52      -0.2727
    107  CA        16.9580    6.1040   30.8680 C.3    52  PRO52       0.1402
    108  C         17.7410    7.2690   31.4630 C.2    52  PRO52       0.2269
    109  O         17.8210    8.3650   30.9000 O.2    52  PRO52      -0.2865
    110  CB        17.8990    5.1730   30.1010 C.3    52  PRO52       0.0296
    111  CG        17.8270    5.7160   28.7100 C.3    52  PRO52       0.0237
    112  CD        16.3290    5.9160   28.5430 C.3    52  PRO52       0.0939
    113  N         19.2100   10.7050   27.8930 N.3    63  GLN63      -0.1231
    114  CA        19.2070   10.5060   26.4400 C.3    63  GLN63       0.1698
    115  C         20.0390    9.2710   26.0790 C.2    63  GLN63       0.2593
    116  O         21.2660    9.2620   26.2260 O.2    63  GLN63      -0.2718
    117  CB        19.7320   11.7570   25.7180 C.3    63  GLN63       0.0381
    118  CG        18.8640   12.9990   25.9150 C.3    63  GLN63       0.0905
    119  CD        17.5960   12.9540   25.0910 C.2    63  GLN63       0.2608
    120  OE1       17.3690   12.0100   24.3390 O.2    63  GLN63      -0.2717
    121  NE2       16.7860   13.9920   25.1950 N.am   63  GLN63      -0.0878
    122  N         19.3540    8.2320   25.6070 N.am   64  SER64      -0.1938
    123  CA        19.9900    6.9650   25.2530 C.3    64  SER64       0.2055
    124  C         21.1860    7.0990   24.3150 C.2    64  SER64       0.2643
    125  O         22.2280    6.4800   24.5520 O.2    64  SER64      -0.2714
    126  CB        18.9620    6.0000   24.6650 C.3    64  SER64       0.2130
    127  OG        18.3470    6.5500   23.5170 O.3    64  SER64      -0.2179
    128  N         21.0500    7.9220   23.2730 N.am   65  ASN65      -0.1971
    129  CA        22.1420    8.1220   22.3150 C.3    65  ASN65       0.1688
    130  C         23.3320    8.8820   22.8950 C.2    65  ASN65       0.2292
    131  O         24.4660    8.6850   22.4620 O.2    65  ASN65      -0.2864
    132  CB        21.6340    8.8010   21.0400 C.3    65  ASN65       0.1181
    133  CG        20.7200    7.8950   20.2330 C.2    65  ASN65       0.2629
    134  OD1       21.1440    6.8370   19.7810 O.2    65  ASN65      -0.2716
    135  ND2       19.4750    8.3040   20.0460 N.am   65  ASN65      -0.0877
    136  N         18.4530    5.6860   14.6380 N.3    96  GLU96      -0.1245
    137  CA        17.5390    6.4550   15.4810 C.3    96  GLU96       0.1567
    138  C         16.2540    6.8510   14.7480 C.2    96  GLU96       0.2260
    139  O         15.1640    6.7900   15.3260 O.2    96  GLU96      -0.2867
    140  CB        18.2570    7.6920   16.0420 C.3    96  GLU96       0.0388
    141  CG        17.3720    8.6570   16.8380 C.3    96  GLU96       0.1160
    142  CD        16.6450    8.0010   18.0120 C.2    96  GLU96       0.3649
    143  OE1       17.2220    7.1190   18.6800 O.co2  96  GLU96      -0.2457
    144  OE2       15.4850    8.3770   18.2670 O.co2  96  GLU96      -0.2457
    145  N          8.9350    2.8460   17.2280 N.3   103  ILE103     -0.1245
    146  CA         8.3120    3.2370   18.4860 C.3   103  ILE103      0.1561
    147  C          6.9220    3.8230   18.2490 C.2   103  ILE103      0.2260
    148  O          5.9770    3.5160   18.9730 O.2   103  ILE103     -0.2867
    149  CB         9.2100    4.2390   19.2500 C.3   103  ILE103      0.0252
    150  CG1       10.4700    3.5210   19.7360 C.3   103  ILE103      0.0019
    151  CG2        8.4580    4.8630   20.4230 C.3   103  ILE103      0.0019
    152  CD1       11.5410    4.4480   20.2570 C.3   103  ILE103      0.0001
    153  N          3.6080    2.0310   20.0180 N.3   107  TYR107     -0.1241
    154  CA         2.8070    2.7850   20.9750 C.3   107  TYR107      0.1605
    155  C          1.6090    3.5710   20.4390 C.2   107  TYR107      0.2264
    156  O          0.6820    3.8560   21.1890 O.2   107  TYR107     -0.2867
    157  CB         3.7220    3.7150   21.7750 C.3   107  TYR107      0.0534
    158  CG         4.7200    2.9790   22.6470 C.ar  107  TYR107     -0.0201
    159  CD1        4.3650    2.5150   23.9150 C.ar  107  TYR107     -0.0009
    160  CD2        6.0250    2.7490   22.2080 C.ar  107  TYR107     -0.0009
    161  CE1        5.2950    1.8370   24.7310 C.ar  107  TYR107      0.0417
    162  CE2        6.9560    2.0760   23.0080 C.ar  107  TYR107      0.0417
    163  CZ         6.5870    1.6230   24.2670 C.ar  107  TYR107      0.1957
    164  OH         7.5200    0.9670   25.0410 O.3   107  TYR107     -0.2866
    165  N          7.2760   -1.4730   26.5690 N.3   204  GLY204     -0.1225
    166  CA         6.4670   -1.2890   27.7580 C.3   204  GLY204      0.1811
    167  C          4.9880   -1.6090   27.6560 C.2   204  GLY204      0.2280
    168  O          4.3030   -1.6330   28.6760 O.2   204  GLY204     -0.2866
@<TRIPOS>BOND
     1   136   137    1
     2   138   139    2
     3   138   137    1
     4   137   140    1
     5   140   141    1
     6   141   142    1
     7   145   146    1
     8   142   144   ar
     9   142   143   ar
    10   147   146    1
    11   147   148    2
    12   146   149    1
    13   149   150    1
    14   149   151    1
    15   150   152    1
    16   134   133    2
    17   153   154    1
    18   135   133   am
    19   133   132    1
    20    45    43    1
    21   155   154    1
    22   155   156    2
    23   154   157    1
    24   132   129    1
    25    44    43    1
    26    43    42    2
    27   157   158    1
    28   160   158   ar
    29   160   162   ar
    30   129   130    1
    31   129   128    1
    32   131   130    2
    33    42    41    1
    34   158   159   ar
    35   162   163   ar
    36   128   124   am
    37   127   126    1
    38    40    41    1
    39    40    39    1
    40    34    33    2
    41   159   161   ar
    42   163   161   ar
    43   163   164    1
    44   124   125    2
    45   124   123    1
    46   120   119    2
    47    33    32    1
    48    33    35   am
    49   126   123    1
    50    36    39    1
    51    36    35    1
    52    36    37    1
    53    32    31    1
    54   119   121   am
    55   119   118    1
    56   123   122    1
    57    38    37    2
    58   122   115   am
    59   117   118    1
    60   117   114    1
    61   115   116    2
    62   115   114    1
    63   114   113    1
    64   165   166    1
    65    97    95   am
    66    96    95    2
    67    12    11    1
    68    95    94    1
    69   167   166    1
    70   167   168    2
    71   112   111    1
    72   112   106    1
    73    11    10   ar
    74    11     9   ar
    75   111   110    1
    76    30    28    1
    77    28    29    1
    78    28    25    1
    79    26    27    2
    80    26    25    1
    81    94    93    1
    82    10     8   ar
    83   101   100    2
    84     9     7   ar
    85    93    90    1
    86    25    24    1
    87   106   100   am
    88   106   107    1
    89   100    99    1
    90   110   107    1
    91     8     6   ar
    92     7     6   ar
    93   107   108    1
    94   109   108    2
    95    90    91    1
    96    90    89    1
    97     6     5    1
    98    98    91   am
    99    98    99    1
   100    91    92    2
   101    99   102    1
   102    89    87   am
   103    20    22   ar
   104    20    18   ar
   105    22    23   ar
   106    85    86    1
   107    88    87    2
   108    87    86    1
   109   102   103    1
   110     5     2    1
   111    84    83    1
   112    17    18    1
   113    17    14    1
   114    16    15    2
   115    18    19   ar
   116    23    21   ar
   117    15    14    1
   118    13    14    1
   119    13     3   am
   120    83    82    1
   121     2     3    1
   122     2     1    1
   123    19    21   ar
   124   103   105    1
   125   103   104    1
   126    64    62   ar
   127    64    66   ar
   128    61    62   ar
   129    61    59   ar
   130     3     4    2
   131    62    60   ar
   132    66    65   ar
   133    59    58   ar
   134    82    81    1
   135    52    50    1
   136    81    80    1
   137    75    73   am
   138    60    58   ar
   139    60    63   ar
   140    50    51    1
   141    50    47    1
   142    65    63   ar
   143    58    57    1
   144    79    78    2
   145    47    46    1
   146    47    48    1
   147    80    77    1
   148    73    72    1
   149    73    74    2
   150    57    54    1
   151    72    71    1
   152    77    78    1
   153    77    76    1
   154    49    48    2
   155    54    55    1
   156    54    53    1
   157    56    55    2
   158    71    68    1
   159    55    67   am
   160    67    68    1
   161    68    69    1
   162    69    70    2
