@<TRIPOS>MOLECULE
tmp/11baA00.pdb
 122 115 0 0 0
SMALL
GASTEIGER

@<TRIPOS>ATOM
      1  N         -3.7410   12.5860    5.1780 N.3    41  LYS41      -0.1245
      2  CA        -5.0620   13.2510    4.9140 C.3    41  LYS41       0.1561
      3  C         -5.4460   13.9810    6.1850 C.2    41  LYS41       0.2260
      4  O         -5.4840   13.3940    7.2660 O.2    41  LYS41      -0.2867
      5  CB        -6.1390   12.2240    4.5920 C.3    41  LYS41       0.0271
      6  CG        -7.4840   12.7940    4.1110 C.3    41  LYS41       0.0035
      7  CD        -8.4440   11.6420    3.8310 C.3    41  LYS41       0.0206
      8  CE        -9.8190   12.1270    3.4130 C.3    41  LYS41       0.1093
      9  NZ       -10.5640   11.1080    2.6410 N.3    41  LYS41      -0.1314
     10  N         -8.3340   15.3720    7.3240 N.3    43  VAL43      -0.1231
     11  CA        -9.6300   15.1320    7.9660 C.3    43  VAL43       0.1692
     12  C        -10.3180   13.9330    7.3140 C.2    43  VAL43       0.2592
     13  O        -10.3690   13.8650    6.0880 O.2    43  VAL43      -0.2718
     14  CB       -10.5940   16.3250    7.7850 C.3    43  VAL43       0.0266
     15  CG1      -11.8500   16.0650    8.6160 C.3    43  VAL43       0.0020
     16  CG2      -10.0180   17.6410    8.2860 C.3    43  VAL43       0.0020
     17  N        -10.7840   12.9950    8.1180 N.am   44  ASN44      -0.1960
     18  CA       -11.5350   11.8670    7.5450 C.3    44  ASN44       0.1819
     19  C        -12.4820   11.2880    8.5930 C.2    44  ASN44       0.2621
     20  O        -12.1260   11.0930    9.7460 O.2    44  ASN44      -0.2715
     21  CB       -10.6370   10.7750    7.0480 C.3    44  ASN44       0.1195
     22  CG       -11.2780    9.7130    6.2040 C.2    44  ASN44       0.2630
     23  OD1      -11.5770    9.8820    5.0360 O.2    44  ASN44      -0.2716
     24  ND2      -11.4280    8.5160    6.7480 N.am   44  ASN44      -0.0877
     25  N        -13.7320   11.0150    8.1680 N.am   45  THR45      -0.1951
     26  CA       -14.7270   10.4640    9.1020 C.3    45  THR45       0.1897
     27  C        -15.0050    8.9970    8.7910 C.2    45  THR45       0.2313
     28  O        -15.1520    8.6670    7.6070 O.2    45  THR45      -0.2863
     29  CB       -16.0750   11.2300    9.0120 C.3    45  THR45       0.1794
     30  OG1      -15.7730   12.6210    9.2160 O.3    45  THR45      -0.2208
     31  CG2      -17.0060   10.8420   10.1520 C.3    45  THR45       0.0378
     32  N        -23.7950   21.0290   -1.0980 N.3    65  CYS65      -0.1235
     33  CA       -22.4910   20.6840   -0.4970 C.3    65  CYS65       0.1677
     34  C        -21.7310   21.9060   -0.0270 C.2    65  CYS65       0.2270
     35  O        -21.9470   23.0000   -0.5490 O.2    65  CYS65      -0.2867
     36  CB       -21.6450   19.9350   -1.5420 C.3    65  CYS65       0.0956
     37  SG       -22.5030   18.5220   -2.2770 S.3    65  CYS65      -0.0801
     38  N        -18.9190   22.8550   -0.8490 N.3    67  ASN67      -0.1240
     39  CA       -18.1800   23.4140   -1.9970 C.3    67  ASN67       0.1653
     40  C        -19.0920   23.8870   -3.1120 C.2    67  ASN67       0.2266
     41  O        -18.6890   24.2210   -4.2340 O.2    67  ASN67      -0.2867
     42  CB       -17.1940   22.3490   -2.5000 C.3    67  ASN67       0.1155
     43  CG       -17.8860   21.1030   -2.9810 C.2    67  ASN67       0.2627
     44  OD1      -19.1110   21.0860   -3.1150 O.2    67  ASN67      -0.2716
     45  ND2      -17.1520   20.0200   -3.2510 N.am   67  ASN67      -0.0877
     46  N        -21.5890   22.2990   -4.7040 N.3    69  GLN69      -0.1245
     47  CA       -22.1790   21.2970   -5.5870 C.3    69  GLN69       0.1566
     48  C        -23.5340   20.8740   -4.9880 C.2    69  GLN69       0.2260
     49  O        -23.8200   21.0790   -3.8070 O.2    69  GLN69      -0.2867
     50  CB       -21.2730   20.0770   -5.7730 C.3    69  GLN69       0.0367
     51  CG       -20.1120   20.3990   -6.7580 C.3    69  GLN69       0.0905
     52  CD       -19.2100   19.2080   -6.9930 C.2    69  GLN69       0.2608
     53  OE1      -18.2940   18.9080   -6.2090 O.2    69  GLN69      -0.2717
     54  NE2      -19.4490   18.5180   -8.0860 N.am   69  GLN69      -0.0878
     55  N        -25.2010   17.6720   -5.2800 N.3    71  ASN71      -0.1240
     56  CA       -25.4890   16.2560   -5.1220 C.3    71  ASN71       0.1653
     57  C        -25.2500   15.7520   -3.7200 C.2    71  ASN71       0.2266
     58  O        -24.9210   14.5650   -3.5280 O.2    71  ASN71      -0.2867
     59  CB       -24.6790   15.4810   -6.1490 C.3    71  ASN71       0.1155
     60  CG       -23.1700   15.6750   -6.0230 C.2    71  ASN71       0.2627
     61  OD1      -22.6740   16.7220   -5.6260 O.2    71  ASN71      -0.2716
     62  ND2      -22.4690   14.6180   -6.4050 N.am   71  ASN71      -0.0877
     63  N        -14.5320   10.7560   13.9890 N.3    83  ASP83      -0.1239
     64  CA       -13.8000   11.8060   13.2800 C.3    83  ASP83       0.1674
     65  C        -12.2840   11.6590   13.5180 C.2    83  ASP83       0.2266
     66  O        -11.8860   11.5450   14.6720 O.2    83  ASP83      -0.2867
     67  CB       -14.1590   13.2090   13.7320 C.3    83  ASP83       0.1410
     68  CG       -15.3030   13.8230   12.9270 C.2    83  ASP83       0.3668
     69  OD1      -15.5610   13.4630   11.7660 O.co2  83  ASP83      -0.2456
     70  OD2      -15.9470   14.7220   13.5180 O.co2  83  ASP83      -0.2456
     71  N        -21.9690   13.1130   -0.5620 N.3   109  ALA109     -0.1245
     72  CA       -22.3650   13.3760   -1.9440 C.3   109  ALA109      0.1562
     73  C        -22.6320   12.0000   -2.5590 C.2   109  ALA109      0.2260
     74  O        -22.0020   11.0270   -2.1050 O.2   109  ALA109     -0.2867
     75  CB       -21.3340   14.1210   -2.7310 C.3   109  ALA109      0.0290
     76  N        -20.1030    8.8330   -2.5420 N.3   118  VAL118     -0.1231
     77  CA       -18.8110    8.9660   -3.1950 C.3   118  VAL118      0.1692
     78  C        -17.9400    9.9930   -2.4910 C.2   118  VAL118      0.2592
     79  O        -16.8390   10.2850   -2.9660 O.2   118  VAL118     -0.2718
     80  CB       -18.9240    9.4050   -4.6660 C.3   118  VAL118      0.0266
     81  CG1      -19.5190    8.2820   -5.4910 C.3   118  VAL118      0.0020
     82  CG2      -19.7020   10.6830   -4.8640 C.3   118  VAL118      0.0020
     83  N        -18.4370   10.5680   -1.4120 N.am  119  HIS119     -0.1962
     84  CA       -17.7430   11.6600   -0.7430 C.3   119  HIS119      0.1787
     85  C        -18.4470   11.9520    0.5740 C.2   119  HIS119      0.2620
     86  O        -19.6760   11.9790    0.5700 O.2   119  HIS119     -0.2715
     87  CB       -17.7230   12.9010   -1.6320 C.3   119  HIS119      0.0785
     88  CG       -17.5680   14.2210   -0.9410 C.ar  119  HIS119      0.0821
     89  ND1      -16.4620   14.5960   -0.2270 N.ar  119  HIS119     -0.2267
     90  CD2      -18.4160   15.2690   -0.8570 C.ar  119  HIS119      0.1154
     91  CE1      -16.6530   15.7980    0.2780 C.ar  119  HIS119      0.1986
     92  NE2      -17.8380   16.2510   -0.0940 N.ar  119  HIS119     -0.2212
     93  N        -17.6990   12.1240    1.6640 N.am  120  PHE120     -0.1960
     94  CA       -18.2090   12.5530    2.9300 C.3   120  PHE120      0.1771
     95  C        -18.0760   14.0650    3.0120 C.2   120  PHE120      0.2620
     96  O        -16.9410   14.5630    2.9820 O.2   120  PHE120     -0.2715
     97  CB       -17.4500   11.9550    4.0890 C.3   120  PHE120      0.0574
     98  CG       -18.1530   12.0370    5.4040 C.ar  120  PHE120     -0.0200
     99  CD1      -18.1800   13.2170    6.1280 C.ar  120  PHE120     -0.0042
    100  CD2      -18.8240   10.9260    5.8990 C.ar  120  PHE120     -0.0042
    101  CE1      -18.8380   13.2650    7.3430 C.ar  120  PHE120     -0.0003
    102  CE2      -19.4940   10.9780    7.1040 C.ar  120  PHE120     -0.0003
    103  CZ       -19.4960   12.1490    7.8280 C.ar  120  PHE120     -0.0000
    104  N        -19.1650   14.8160    3.1060 N.am  121  ASP121     -0.1957
    105  CA       -19.1120   16.2700    3.1590 C.3   121  ASP121      0.1840
    106  C        -19.0640   16.8710    4.5260 C.2   121  ASP121      0.2622
    107  O        -18.3260   17.8590    4.7430 O.2   121  ASP121     -0.2715
    108  CB       -20.3390   16.8370    2.4160 C.3   121  ASP121      0.1450
    109  CG       -20.0600   18.1980    1.8450 C.2   121  ASP121      0.3671
    110  OD1      -19.1830   18.3180    0.9500 O.co2 121  ASP121     -0.2456
    111  OD2      -20.6990   19.1830    2.2810 O.co2 121  ASP121     -0.2456
    112  N        -19.7960   16.3310    5.5110 N.am  122  ALA122     -0.1963
    113  CA       -19.8590   16.9740    6.8170 C.3   122  ALA122      0.1728
    114  C        -20.7810   16.2160    7.7580 C.2   122  ALA122      0.2616
    115  O        -21.3870   15.2580    7.3400 O.2   122  ALA122     -0.2715
    116  CB       -20.4850   18.3610    6.6800 C.3   122  ALA122      0.0334
    117  N        -20.8510   16.6180    8.9910 N.am  123  SER123     -0.1950
    118  CA       -21.7300   16.0550    9.9970 C.3   123  SER123      0.1924
    119  C        -22.3650   17.2260   10.7530 C.2   123  SER123      0.2314
    120  O        -21.7650   18.3210   10.8060 O.2   123  SER123     -0.2863
    121  CB       -21.0510   15.0980   10.9270 C.3   123  SER123      0.2116
    122  OG       -20.0970   15.6010   11.8210 O.3   123  SER123     -0.2180
@<TRIPOS>BOND
     1    54    52   am
     2    52    51    1
     3    52    53    2
     4    51    50    1
     5    62    60   am
     6    59    60    1
     7    59    56    1
     8    60    61    2
     9    50    47    1
    10    47    48    1
    11    47    46    1
    12    81    80    1
    13    55    56    1
    14    56    57    1
    15    48    49    2
    16    82    80    1
    17    80    77    1
    18    41    40    2
    19    57    58    2
    20    45    43   am
    21    77    76    1
    22    77    78    1
    23    44    43    2
    24    40    39    1
    25    43    42    1
    26    79    78    2
    27    75    72    1
    28    73    74    2
    29    73    72    1
    30    42    39    1
    31    78    83   am
    32    37    36    1
    33    39    38    1
    34    72    71    1
    35    87    88    1
    36    87    84    1
    37    36    33    1
    38    83    84    1
    39    32    33    1
    40    88    90   ar
    41    88    89   ar
    42    90    92   ar
    43    84    85    1
    44    35    34    2
    45    33    34    1
    46    89    91   ar
    47    92    91   ar
    48    86    85    2
    49    85    93   am
    50   110   109   ar
    51    93    94    1
    52   109   111   ar
    53   109   108    1
    54   108   105    1
    55     9     8    1
    56    94    95    1
    57    94    97    1
    58    96    95    2
    59    95   104   am
    60   104   105    1
    61   105   106    1
    62     8     7    1
    63     7     6    1
    64    97    98    1
    65     6     5    1
    66   106   107    2
    67   106   112   am
    68     5     2    1
    69     2     1    1
    70     2     3    1
    71    23    22    2
    72    98   100   ar
    73    98    99   ar
    74   112   113    1
    75   100   102   ar
    76    13    12    2
    77    99   101   ar
    78     3     4    2
    79    22    24   am
    80    22    21    1
    81   116   113    1
    82   113   114    1
    83    21    18    1
    84   102   103   ar
    85    12    11    1
    86    12    17   am
    87    10    11    1
    88   115   114    2
    89   101   103   ar
    90    18    17    1
    91    18    19    1
    92    28    27    2
    93   114   117   am
    94    14    11    1
    95    14    16    1
    96    14    15    1
    97    25    19   am
    98    25    26    1
    99    19    20    2
   100    27    26    1
   101   117   118    1
   102    29    26    1
   103    29    30    1
   104    29    31    1
   105   118   119    1
   106   118   121    1
   107   119   120    2
   108   121   122    1
   109    69    68   ar
   110    68    70   ar
   111    68    67    1
   112    64    65    1
   113    64    67    1
   114    64    63    1
   115    65    66    2
