@<TRIPOS>MOLECULE
tmp/11bgA01.pdb
 92 86 0 0 0
SMALL
GASTEIGER

@<TRIPOS>ATOM
      1  N          2.2240   23.1620   68.6500 N.3    13  MET13      -0.1230
      2  CA         1.1740   23.5680   67.7520 C.3    13  MET13       0.1702
      3  C          1.3210   24.9610   67.1880 C.2    13  MET13       0.2592
      4  O          1.5640   25.8990   67.9360 O.2    13  MET13      -0.2718
      5  CB        -0.2370   23.4470   68.4140 C.3    13  MET13       0.0401
      6  CG        -0.8250   22.0610   68.6080 C.3    13  MET13       0.0596
      7  SD        -0.7870   20.9920   67.1990 S.3    13  MET13      -0.1393
      8  CE        -1.7900   21.9600   66.0030 C.3    13  MET13       0.0692
      9  N          1.2670   25.0860   65.8580 N.am   14  ASP14      -0.1960
     10  CA         1.2400   26.4200   65.2250 C.3    14  ASP14       0.1840
     11  C          0.4130   26.3310   63.9170 C.2    14  ASP14       0.2622
     12  O          0.9800   26.3600   62.8140 O.2    14  ASP14      -0.2715
     13  CB         2.6390   26.9900   64.9750 C.3    14  ASP14       0.1450
     14  CG         2.5990   28.4530   64.5280 C.2    14  ASP14       0.3671
     15  OD1        1.7020   29.2140   64.9520 O.co2  14  ASP14      -0.2456
     16  OD2        3.4830   28.8690   63.7660 O.co2  14  ASP14      -0.2456
     17  N         -0.9060   26.1540   64.0460 N.am   15  SER15      -0.1950
     18  CA        -1.8060   26.0150   62.8860 C.3    15  SER15       0.1924
     19  C         -1.7770   27.2810   62.0490 C.2    15  SER15       0.2314
     20  O         -1.7770   28.3850   62.5880 O.2    15  SER15      -0.2863
     21  CB        -3.2280   25.7610   63.3490 C.3    15  SER15       0.2116
     22  OG        -3.2380   24.8640   64.4440 O.3    15  SER15      -0.2180
     23  N          2.8060   29.9220   58.1980 N.3    19  PRO19      -0.2116
     24  CA         3.3270   30.1730   59.5310 C.3    19  PRO19       0.1372
     25  C          4.5170   31.1320   59.6040 C.2    19  PRO19       0.2244
     26  O          4.5920   31.9460   60.5280 O.2    19  PRO19      -0.2868
     27  CB         3.6440   28.7600   60.0340 C.3    19  PRO19       0.0268
     28  CG         3.9050   27.9680   58.7910 C.3    19  PRO19       0.0207
     29  CD         2.8410   28.4800   57.8710 C.3    19  PRO19       0.0892
     30  N          3.3850   37.5830   60.4010 N.3    24  ASN24      -0.1240
     31  CA         3.3590   37.0340   61.7720 C.3    24  ASN24       0.1653
     32  C          4.5140   37.5110   62.6640 C.2    24  ASN24       0.2266
     33  O          4.5100   37.2350   63.8640 O.2    24  ASN24      -0.2867
     34  CB         3.4420   35.5140   61.7080 C.3    24  ASN24       0.1155
     35  CG         2.2590   34.9080   60.9710 C.2    24  ASN24       0.2627
     36  OD1        1.1310   35.3870   61.1240 O.2    24  ASN24      -0.2716
     37  ND2        2.5110   33.8770   60.1480 N.am   24  ASN24      -0.0877
     38  N          3.7610   39.3870   66.0930 N.3    27  ASN27      -0.1225
     39  CA         3.1870   38.4640   67.0730 C.3    27  ASN27       0.1785
     40  C          4.2770   37.6310   67.7330 C.2    27  ASN27       0.2597
     41  O          4.3200   37.5070   68.9580 O.2    27  ASN27      -0.2718
     42  CB         2.1730   37.5340   66.4230 C.3    27  ASN27       0.1169
     43  CG         0.8840   38.2250   66.1180 C.2    27  ASN27       0.2627
     44  OD1        0.5870   39.2410   66.7070 O.2    27  ASN27      -0.2716
     45  ND2        0.1240   37.7020   65.1730 N.am   27  ASN27      -0.0877
     46  N          5.1800   37.0880   66.9320 N.am   28  LEU28      -0.1980
     47  CA         6.2320   36.2410   67.4530 C.3    28  LEU28       0.1596
     48  C          7.2950   37.0160   68.2130 C.2    28  LEU28       0.2287
     49  O          7.7320   36.5820   69.2890 O.2    28  LEU28      -0.2864
     50  CB         6.8260   35.3660   66.3190 C.3    28  LEU28       0.0297
     51  CG         5.8350   34.4250   65.5320 C.3    28  LEU28       0.0022
     52  CD1        6.5520   33.4400   64.6040 C.3    28  LEU28       0.0001
     53  CD2        4.9140   33.6570   66.4420 C.3    28  LEU28       0.0001
     54  N          6.1200   38.5310   71.6460 N.3    31  CYS31      -0.1235
     55  CA         6.0520   37.4110   72.5630 C.3    31  CYS31       0.1677
     56  C          7.4720   37.0430   73.0100 C.2    31  CYS31       0.2270
     57  O          7.7590   36.9950   74.1770 O.2    31  CYS31      -0.2867
     58  CB         5.4240   36.2310   71.8330 C.3    31  CYS31       0.0956
     59  SG         5.5400   34.6330   72.7100 S.3    31  CYS31      -0.0801
     60  N          4.5380   41.1460   76.1840 N.3    36  THR36      -0.1218
     61  CA         3.1780   40.6930   76.3570 C.3    36  THR36       0.1862
     62  C          3.0400   40.0150   77.7530 C.2    36  THR36       0.2287
     63  O          2.3350   39.0360   77.9080 O.2    36  THR36      -0.2866
     64  CB         2.7160   39.7560   75.1820 C.3    36  THR36       0.1770
     65  OG1        3.4760   38.5570   75.1550 O.3    36  THR36      -0.2211
     66  CG2        2.9000   40.4600   73.8290 C.3    36  THR36       0.0375
     67  N         -4.6630   37.3280   74.7180 N.3    94  ASN94      -0.1225
     68  CA        -4.6230   37.0910   73.2840 C.3    94  ASN94       0.1785
     69  C         -4.1910   38.3750   72.5420 C.2    94  ASN94       0.2597
     70  O         -4.9970   39.0350   71.8650 O.2    94  ASN94      -0.2718
     71  CB        -5.9790   36.5660   72.7920 C.3    94  ASN94       0.1169
     72  CG        -6.3560   35.2220   73.4310 C.2    94  ASN94       0.2627
     73  OD1       -7.3690   35.1330   74.1270 O.2    94  ASN94      -0.2716
     74  ND2       -5.5310   34.1790   73.2130 N.am   94  ASN94      -0.0877
     75  N         -2.9260   38.7570   72.7360 N.am   95  CYS95      -0.1970
     76  CA        -2.3560   39.9450   72.0890 C.3    95  CYS95       0.1712
     77  C         -2.1860   39.6700   70.6020 C.2    95  CYS95       0.2296
     78  O         -1.6650   38.6240   70.2240 O.2    95  CYS95      -0.2864
     79  CB        -0.9980   40.2480   72.6870 C.3    95  CYS95       0.0983
     80  SG        -1.0850   40.5440   74.4730 S.3    95  CYS95      -0.0798
     81  N         -0.9480   41.5940   66.7770 N.3    97  TYR97      -0.1241
     82  CA        -0.2520   42.7530   66.2240 C.3    97  TYR97       0.1605
     83  C         -0.2220   42.8130   64.7060 C.2    97  TYR97       0.2264
     84  O         -0.1160   41.7960   64.0510 O.2    97  TYR97      -0.2867
     85  CB         1.2240   42.7990   66.7100 C.3    97  TYR97       0.0534
     86  CG         1.4120   43.0310   68.2110 C.ar   97  TYR97      -0.0201
     87  CD1        1.4180   44.3300   68.7330 C.ar   97  TYR97      -0.0009
     88  CD2        1.5030   41.9450   69.1160 C.ar   97  TYR97      -0.0009
     89  CE1        1.4890   44.5580   70.1180 C.ar   97  TYR97       0.0417
     90  CE2        1.5760   42.1700   70.5050 C.ar   97  TYR97       0.0417
     91  CZ         1.5580   43.4740   70.9710 C.ar   97  TYR97       0.1957
     92  OH         1.5700   43.7190   72.2920 O.3    97  TYR97      -0.2866
@<TRIPOS>BOND
     1    29    23    1
     2    29    28    1
     3    23    24    1
     4    28    27    1
     5    24    25    1
     6    24    27    1
     7    25    26    2
     8    37    35   am
     9    30    31    1
    10    35    36    2
    11    35    34    1
    12    34    31    1
    13    31    32    1
    14    19    20    2
    15    19    18    1
    16    32    33    2
    17    12    11    2
    18    18    21    1
    19    18    17    1
    20    21    22    1
    21    16    14   ar
    22    11    17   am
    23    11    10    1
    24    84    83    2
    25    14    15   ar
    26    14    13    1
    27    52    51    1
    28    83    82    1
    29    13    10    1
    30    45    43   am
    31    10     9    1
    32    51    50    1
    33    51    53    1
    34     9     3   am
    35     8     7    1
    36    38    39    1
    37    43    42    1
    38    43    44    2
    39    82    85    1
    40    82    81    1
    41    50    47    1
    42    42    39    1
    43    85    86    1
    44    46    47    1
    45    46    40   am
    46    39    40    1
    47     3     2    1
    48     3     4    2
    49     7     6    1
    50    47    48    1
    51    40    41    2
    52     2     5    1
    53     2     1    1
    54    86    87   ar
    55    86    88   ar
    56    48    49    2
    57     5     6    1
    58    87    89   ar
    59    88    90   ar
    60    89    91   ar
    61    78    77    2
    62    90    91   ar
    63    77    76    1
    64    91    92    1
    65    54    55    1
    66    58    55    1
    67    58    59    1
    68    70    69    2
    69    76    79    1
    70    76    75    1
    71    69    75   am
    72    69    68    1
    73    55    56    1
    74    79    80    1
    75    71    68    1
    76    71    72    1
    77    56    57    2
    78    74    72   am
    79    68    67    1
    80    72    73    2
    81    66    64    1
    82    65    64    1
    83    64    61    1
    84    60    61    1
    85    61    62    1
    86    62    63    2
