@<TRIPOS>MOLECULE
tmp/11bgA00.pdb
 130 122 0 0 0
SMALL
GASTEIGER

@<TRIPOS>ATOM
      1  N          1.7970   45.3480   75.1540 N.3    41  LYS41      -0.1245
      2  CA         2.3630   46.6760   74.8880 C.3    41  LYS41       0.1561
      3  C          1.6290   47.0830   73.5980 C.2    41  LYS41       0.2260
      4  O          1.6410   46.3500   72.6090 O.2    41  LYS41      -0.2867
      5  CB         3.8710   46.5990   74.6790 C.3    41  LYS41       0.0271
      6  CG         4.4890   47.9330   74.3420 C.3    41  LYS41       0.0035
      7  CD         6.0040   47.8500   74.3280 C.3    41  LYS41       0.0206
      8  CE         6.6200   49.2310   74.2690 C.3    41  LYS41       0.1093
      9  NZ         8.1040   49.1660   74.2280 N.3    41  LYS41      -0.1314
     10  N          2.1880   49.5130   71.1820 N.3    43  VAL43      -0.1231
     11  CA         2.9870   49.8220   69.9920 C.3    43  VAL43       0.1692
     12  C          4.4580   49.6730   70.3390 C.2    43  VAL43       0.2592
     13  O          4.9020   50.1140   71.4030 O.2    43  VAL43      -0.2718
     14  CB         2.7970   51.2920   69.5270 C.3    43  VAL43       0.0266
     15  CG1        3.5140   51.5360   68.2090 C.3    43  VAL43       0.0020
     16  CG2        1.3350   51.6110   69.4150 C.3    43  VAL43       0.0020
     17  N          5.2240   49.1400   69.3990 N.am   44  ASN44      -0.1960
     18  CA         6.6370   48.9480   69.5930 C.3    44  ASN44       0.1819
     19  C          7.3340   48.8730   68.2540 C.2    44  ASN44       0.2621
     20  O          6.9310   48.1050   67.4110 O.2    44  ASN44      -0.2715
     21  CB         6.8760   47.6160   70.3300 C.3    44  ASN44       0.1195
     22  CG         8.2940   47.4680   70.7520 C.2    44  ASN44       0.2630
     23  OD1        8.7660   48.2460   71.5480 O.2    44  ASN44      -0.2716
     24  ND2        9.0160   46.5720   70.1390 N.am   44  ASN44      -0.0877
     25  N          8.4750   49.5130   68.1290 N.am   45  THR45      -0.1951
     26  CA         9.2350   49.4600   66.8920 C.3    45  THR45       0.1897
     27  C         10.5520   48.6710   67.0310 C.2    45  THR45       0.2313
     28  O         11.2640   48.8510   68.0450 O.2    45  THR45      -0.2863
     29  CB         9.5580   50.8950   66.4320 C.3    45  THR45       0.1794
     30  OG1        8.3310   51.6030   66.2390 O.3    45  THR45      -0.2208
     31  CG2       10.4000   50.9040   65.1240 C.3    45  THR45       0.0378
     32  N          8.6070   63.7430   72.2980 N.3    66  LYS66      -0.1245
     33  CA         7.1510   63.8860   72.3040 C.3    66  LYS66       0.1561
     34  C          6.6690   64.4150   73.6720 C.2    66  LYS66       0.2260
     35  O          5.7060   65.2160   73.7340 O.2    66  LYS66      -0.2867
     36  CB         6.4810   62.5480   71.9750 C.3    66  LYS66       0.0271
     37  CG         6.2140   62.3320   70.4810 C.3    66  LYS66       0.0035
     38  CD         6.6140   60.9440   69.9720 C.3    66  LYS66       0.0206
     39  CE         5.9870   59.7780   70.7760 C.3    66  LYS66       0.1093
     40  NZ         6.8840   58.9130   71.7260 N.3    66  LYS66      -0.1314
     41  N         12.9720   49.6180   59.6760 N.3    81  ILE81      -0.1245
     42  CA        12.3150   49.3850   60.9520 C.3    81  ILE81       0.1561
     43  C         10.9890   48.6620   60.7260 C.2    81  ILE81       0.2260
     44  O         10.4650   48.6640   59.6110 O.2    81  ILE81      -0.2867
     45  CB        12.0530   50.7300   61.7270 C.3    81  ILE81       0.0252
     46  CG1       11.1100   51.6410   60.9370 C.3    81  ILE81       0.0019
     47  CG2       13.3360   51.5040   61.8910 C.3    81  ILE81       0.0019
     48  CD1       10.6530   52.8770   61.6720 C.3    81  ILE81       0.0001
     49  N          7.2250   48.3760   62.4680 N.3    83  ASP83      -0.1239
     50  CA         6.2790   48.9140   63.4090 C.3    83  ASP83       0.1674
     51  C          5.3280   47.7700   63.7390 C.2    83  ASP83       0.2266
     52  O          4.9010   47.0260   62.8470 O.2    83  ASP83      -0.2867
     53  CB         5.4980   50.0720   62.7920 C.3    83  ASP83       0.1410
     54  CG         4.4560   50.6210   63.7370 C.2    83  ASP83       0.3668
     55  OD1        3.3290   50.0610   63.8590 O.co2  83  ASP83      -0.2456
     56  OD2        4.7770   51.6100   64.4050 O.co2  83  ASP83      -0.2456
     57  N          1.9280   47.1070   65.9260 N.3    85  ARG85      -0.1245
     58  CA         0.8470   47.8390   66.5630 C.3    85  ARG85       0.1563
     59  C         -0.2840   46.8560   66.8090 C.2    85  ARG85       0.2260
     60  O         -0.5900   46.0590   65.9300 O.2    85  ARG85      -0.2867
     61  CB         0.4290   48.9790   65.6000 C.3    85  ARG85       0.0307
     62  CG        -0.4830   50.0270   66.1950 C.3    85  ARG85       0.0489
     63  CD        -0.1230   51.4650   65.7150 C.3    85  ARG85       0.2205
     64  NE        -1.0340   52.4790   66.3030 N.pl3  85  ARG85      -0.0865
     65  CZ        -0.6720   53.6220   66.9120 C.cat  85  ARG85       0.5346
     66  NH1        0.6130   53.9770   67.0420 N.pl3  85  ARG85       0.1354
     67  NH2       -1.6230   54.4100   67.4250 N.pl3  85  ARG85       0.1354
     68  N          4.1940   46.2740   60.1540 N.3   100  THR100     -0.1218
     69  CA         4.3630   47.2420   59.0710 C.3   100  THR100      0.1862
     70  C          5.8530   47.4570   58.8820 C.2   100  THR100      0.2287
     71  O          6.5440   47.8840   59.8180 O.2   100  THR100     -0.2866
     72  CB         3.7420   48.6080   59.4240 C.3   100  THR100      0.1770
     73  OG1        2.3540   48.4300   59.7210 O.3   100  THR100     -0.2211
     74  CG2        3.8840   49.5920   58.2660 C.3   100  THR100      0.0375
     75  N          8.7950   49.5690   57.2640 N.3   102  VAL102     -0.1245
     76  CA         9.0110   50.8580   56.6270 C.3   102  VAL102      0.1561
     77  C         10.4620   51.2590   56.7150 C.2   102  VAL102      0.2260
     78  O         11.2510   50.5230   57.3080 O.2   102  VAL102     -0.2867
     79  CB         8.0850   51.9330   57.2280 C.3   102  VAL102      0.0252
     80  CG1        6.6080   51.5570   56.9620 C.3   102  VAL102      0.0019
     81  CG2        8.3070   52.0960   58.7550 C.3   102  VAL102      0.0019
     82  N         12.4400   54.6940   57.6920 N.3   104  LYS104     -0.1245
     83  CA        12.2700   56.0630   58.1700 C.3   104  LYS104      0.1561
     84  C         13.3980   56.4810   59.0770 C.2   104  LYS104      0.2260
     85  O         14.2770   55.6990   59.3550 O.2   104  LYS104     -0.2867
     86  CB        10.9520   56.1710   58.9510 C.3   104  LYS104      0.0271
     87  CG         9.6910   56.1040   58.1040 C.3   104  LYS104      0.0035
     88  CD         8.4600   56.1700   58.9900 C.3   104  LYS104      0.0206
     89  CE         7.4750   57.2890   58.5500 C.3   104  LYS104      0.1093
     90  NZ         6.6570   57.8910   59.6900 N.3   104  LYS104     -0.1314
     91  N         15.1030   54.8020   75.0130 N.3   119  HIS119     -0.1226
     92  CA        13.6770   54.7830   74.7230 C.3   119  HIS119      0.1752
     93  C         13.4870   55.1090   73.2480 C.2   119  HIS119      0.2596
     94  O         14.2680   55.8610   72.6680 O.2   119  HIS119     -0.2718
     95  CB        12.9200   55.7670   75.6660 C.3   119  HIS119      0.0759
     96  CG        11.7740   56.5190   75.0180 C.ar  119  HIS119      0.0818
     97  ND1       10.4740   56.0330   74.9800 N.ar  119  HIS119     -0.2268
     98  CD2       11.7280   57.7420   74.4120 C.ar  119  HIS119      0.1154
     99  CE1        9.6860   56.9110   74.3820 C.ar  119  HIS119      0.1986
    100  NE2       10.4220   57.9570   74.0330 N.ar  119  HIS119     -0.2212
    101  N         12.5240   54.4470   72.6150 N.am  120  PHE120     -0.1962
    102  CA        12.2040   54.7420   71.2210 C.3   120  PHE120      0.1771
    103  C         11.0440   55.7610   71.2590 C.2   120  PHE120      0.2620
    104  O          9.9910   55.5220   71.8450 O.2   120  PHE120     -0.2715
    105  CB        11.7790   53.4880   70.4700 C.3   120  PHE120      0.0574
    106  CG        11.6210   53.7190   69.0020 C.ar  120  PHE120     -0.0200
    107  CD1       10.4340   54.2220   68.4930 C.ar  120  PHE120     -0.0042
    108  CD2       12.6660   53.4750   68.1430 C.ar  120  PHE120     -0.0042
    109  CE1       10.2970   54.4780   67.1260 C.ar  120  PHE120     -0.0003
    110  CE2       12.5370   53.7300   66.7670 C.ar  120  PHE120     -0.0003
    111  CZ        11.3500   54.2280   66.2750 C.ar  120  PHE120     -0.0000
    112  N         11.2620   56.9150   70.6560 N.am  121  ASP121     -0.1957
    113  CA        10.2780   57.9650   70.6760 C.3   121  ASP121      0.1840
    114  C          9.3170   57.9650   69.4760 C.2   121  ASP121      0.2622
    115  O          8.1020   57.9530   69.6420 O.2   121  ASP121     -0.2715
    116  CB        11.0350   59.2860   70.7550 C.3   121  ASP121      0.1450
    117  CG        10.2430   60.3630   71.4180 C.2   121  ASP121      0.3671
    118  OD1        9.6730   60.1030   72.4960 O.co2 121  ASP121     -0.2456
    119  OD2       10.1690   61.4770   70.8650 O.co2 121  ASP121     -0.2456
    120  N          9.8700   57.9360   68.2690 N.am  122  ALA122     -0.1963
    121  CA         9.0520   57.9700   67.0570 C.3   122  ALA122      0.1728
    122  C          9.9450   57.8130   65.8520 C.2   122  ALA122      0.2616
    123  O         11.1390   57.6350   65.9890 O.2   122  ALA122     -0.2715
    124  CB         8.3390   59.2930   66.9710 C.3   122  ALA122      0.0334
    125  N          9.3440   57.8680   64.6640 N.am  123  SER123     -0.1950
    126  CA        10.0410   57.7690   63.3650 C.3   123  SER123      0.1924
    127  C          9.3920   58.7650   62.4420 C.2   123  SER123      0.2314
    128  O          8.1850   59.0190   62.5150 O.2   123  SER123     -0.2863
    129  CB         9.9870   56.3700   62.7550 C.3   123  SER123      0.2116
    130  OG         8.6610   55.9720   62.5260 O.3   123  SER123     -0.2180
@<TRIPOS>BOND
     1    76    77    1
     2    76    79    1
     3    76    75    1
     4    77    78    2
     5    80    79    1
     6    79    81    1
     7    82    83    1
     8    87    86    1
     9    87    88    1
    10    83    86    1
    11    83    84    1
    12    74    72    1
    13    89    88    1
    14    89    90    1
    15    70    69    1
    16    70    71    2
    17    69    72    1
    18    69    68    1
    19    84    85    2
    20    72    73    1
    21    44    43    2
    22    41    42    1
    23    43    42    1
    24    46    48    1
    25    46    45    1
    26    42    45    1
    27    45    47    1
    28   127   128    2
    29   127   126    1
    30    49    50    1
    31   130   129    1
    32   129   126    1
    33    53    50    1
    34    53    54    1
    35    52    51    2
    36   126   125    1
    37    50    51    1
    38    54    55   ar
    39    54    56   ar
    40   125   122   am
    41    31    29    1
    42    61    62    1
    43    61    58    1
    44    63    62    1
    45    63    64    1
    46   122   123    2
    47   122   121    1
    48    57    58    1
    49    60    59    2
    50    30    29    1
    51   111   110   ar
    52   111   109   ar
    53    64    65    2
    54    29    26    1
    55    58    59    1
    56   110   108   ar
    57    26    27    1
    58    26    25    1
    59    65    66    1
    60    65    67    1
    61   124   121    1
    62    27    28    2
    63   121   120    1
    64   109   107   ar
    65    20    19    2
    66    25    19   am
    67   108   106   ar
    68    15    14    1
    69    19    18    1
    70   120   114   am
    71   107   106   ar
    72   106   105    1
    73    17    18    1
    74    17    12   am
    75    16    14    1
    76   114   115    2
    77   114   113    1
    78    14    11    1
    79    18    21    1
    80    38    37    1
    81    38    39    1
    82    11    12    1
    83    11    10    1
    84    24    22   am
    85    21    22    1
    86    12    13    2
    87   105   102    1
    88    37    36    1
    89   112   113    1
    90   112   103   am
    91   113   116    1
    92    22    23    2
    93   116   117    1
    94    39    40    1
    95   119   117   ar
    96   102   103    1
    97   102   101    1
    98   103   104    2
    99   117   118   ar
   100    36    33    1
   101    32    33    1
   102    33    34    1
   103     4     3    2
   104   101    93   am
   105    94    93    2
   106    93    92    1
   107     3     2    1
   108    34    35    2
   109   100    99   ar
   110   100    98   ar
   111     9     8    1
   112     8     7    1
   113     7     6    1
   114     6     5    1
   115    99    97   ar
   116    98    96   ar
   117     5     2    1
   118    92    91    1
   119    92    95    1
   120     2     1    1
   121    97    96   ar
   122    96    95    1
