@<TRIPOS>MOLECULE
tmp/11gsA01.pdb
 132 127 0 0 0
SMALL
GASTEIGER

@<TRIPOS>ATOM
      1  N         15.8650    2.4260   34.0850 N.3     6  TYR6       -0.1227
      2  CA        14.8710    2.2990   33.0410 C.3     6  TYR6        0.1736
      3  C         13.7480    1.3910   33.5120 C.2     6  TYR6        0.2595
      4  O         13.7590    0.8950   34.6470 O.2     6  TYR6       -0.2718
      5  CB        15.5600    1.6730   31.8280 C.3     6  TYR6        0.0548
      6  CG        14.8220    1.7870   30.5260 C.ar    6  TYR6       -0.0200
      7  CD1       14.4960    3.0260   29.9890 C.ar    6  TYR6       -0.0009
      8  CD2       14.5300    0.6500   29.7750 C.ar    6  TYR6       -0.0009
      9  CE1       13.9070    3.1330   28.7380 C.ar    6  TYR6        0.0417
     10  CE2       13.9420    0.7450   28.5260 C.ar    6  TYR6        0.0417
     11  CZ        13.6340    1.9930   28.0100 C.ar    6  TYR6        0.1957
     12  OH        13.0360    2.0910   26.7690 O.3     6  TYR6       -0.2866
     13  N         12.7560    1.2340   32.6410 N.am    7  PHE7       -0.1976
     14  CA        11.6200    0.3550   32.8970 C.3     7  PHE7        0.1639
     15  C         12.0570   -1.0760   32.5760 C.2     7  PHE7        0.2290
     16  O         13.1020   -1.2920   31.9670 O.2     7  PHE7       -0.2864
     17  CB        10.4580    0.7320   31.9790 C.3     7  PHE7        0.0560
     18  CG        10.0720    2.1630   32.0630 C.ar    7  PHE7       -0.0200
     19  CD1        9.3430    2.6330   33.1450 C.ar    7  PHE7       -0.0042
     20  CD2       10.4470    3.0490   31.0690 C.ar    7  PHE7       -0.0042
     21  CE1        8.9970    3.9760   33.2400 C.ar    7  PHE7       -0.0003
     22  CE2       10.1090    4.3880   31.1510 C.ar    7  PHE7       -0.0003
     23  CZ         9.3860    4.8580   32.2380 C.ar    7  PHE7       -0.0000
     24  N         11.9180   -3.2360   30.2550 N.3     9  VAL9       -0.1245
     25  CA        11.7120   -3.5220   28.8330 C.3     9  VAL9        0.1561
     26  C         13.0540   -3.2510   28.1620 C.2     9  VAL9        0.2260
     27  O         13.8950   -2.5380   28.7190 O.2     9  VAL9       -0.2867
     28  CB        10.6540   -2.5880   28.1730 C.3     9  VAL9        0.0252
     29  CG1        9.3700   -2.5510   28.9850 C.3     9  VAL9        0.0019
     30  CG2       11.2070   -1.1840   28.0130 C.3     9  VAL9        0.0019
     31  N         13.5130   -1.8920   24.8970 N.3    11  GLY11      -0.1210
     32  CA        13.3380   -0.5650   24.3250 C.3    11  GLY11       0.1956
     33  C         14.6260    0.1660   24.0010 C.2    11  GLY11       0.2611
     34  O         15.5700   -0.4140   23.4610 O.2    11  GLY11      -0.2717
     35  N         14.7080    1.4090   24.4560 N.am   12  ARG12      -0.1979
     36  CA        15.8660    2.2500   24.1780 C.3    12  ARG12       0.1597
     37  C         17.1360    1.9510   24.9630 C.2    12  ARG12       0.2287
     38  O         18.1120    2.7020   24.8620 O.2    12  ARG12      -0.2864
     39  CB        15.4810    3.7220   24.3150 C.3    12  ARG12       0.0334
     40  CG        14.5380    4.1540   23.2340 C.3    12  ARG12       0.0492
     41  CD        14.2600    5.6330   23.2910 C.3    12  ARG12       0.2205
     42  NE        13.6640    6.1340   22.0490 N.pl3  12  ARG12      -0.0865
     43  CZ        14.3670    6.5280   20.9920 C.cat  12  ARG12       0.5346
     44  NH1       15.6900    6.4890   21.0110 N.pl3  12  ARG12       0.1354
     45  NH2       13.7510    6.9730   19.9090 N.pl3  12  ARG12       0.1354
     46  N          5.8820    0.8600   36.6890 N.3    34  VAL34      -0.1245
     47  CA         4.8390    1.7990   36.3100 C.3    34  VAL34       0.1561
     48  C          4.3270    2.5650   37.5250 C.2    34  VAL34       0.2260
     49  O          4.0570    3.7620   37.4400 O.2    34  VAL34      -0.2867
     50  CB         3.6710    1.0890   35.5670 C.3    34  VAL34       0.0252
     51  CG1        2.8260    0.2570   36.5300 C.3    34  VAL34       0.0019
     52  CG2        2.8270    2.0990   34.8030 C.3    34  VAL34       0.0019
     53  N         11.7820   11.9490   31.2550 N.3    50  GLN50      -0.1231
     54  CA        11.7770   10.6270   30.6750 C.3    50  GLN50       0.1698
     55  C         13.0150    9.7890   30.9800 C.2    50  GLN50       0.2592
     56  O         14.0410   10.3100   31.4060 O.2    50  GLN50      -0.2718
     57  CB        11.6290   10.7290   29.1590 C.3    50  GLN50       0.0381
     58  CG        10.2790   11.2430   28.7020 C.3    50  GLN50       0.0905
     59  CD        10.0760   11.0880   27.2110 C.2    50  GLN50       0.2608
     60  OE1       10.9730   11.3800   26.4180 O.2    50  GLN50      -0.2717
     61  NE2        8.8960   10.6380   26.8200 N.am   50  GLN50      -0.0878
     62  N         12.8830    8.4790   30.7780 N.am   51  LEU51      -0.1980
     63  CA        13.9720    7.5190   30.9600 C.3    51  LEU51       0.1596
     64  C         14.2870    7.0540   29.5490 C.2    51  LEU51       0.2287
     65  O         13.5110    7.3080   28.6180 O.2    51  LEU51      -0.2864
     66  CB        13.5080    6.3380   31.8080 C.3    51  LEU51       0.0297
     67  CG        13.0360    6.6000   33.2320 C.3    51  LEU51       0.0022
     68  CD1       12.6150    5.2890   33.8730 C.3    51  LEU51       0.0001
     69  CD2       14.1420    7.2620   34.0450 C.3    51  LEU51       0.0001
     70  N         13.8710    3.9240   14.2240 N.3    99  ARG99      -0.1245
     71  CA        13.3940    3.4950   15.5360 C.3    99  ARG99       0.1563
     72  C         12.1750    4.3100   15.9530 C.2    99  ARG99       0.2260
     73  O         11.2700    3.7920   16.6070 O.2    99  ARG99      -0.2867
     74  CB        14.4950    3.6210   16.5940 C.3    99  ARG99       0.0307
     75  CG        14.0620    3.0560   17.9430 C.3    99  ARG99       0.0489
     76  CD        15.1200    3.2010   19.0080 C.3    99  ARG99       0.2205
     77  NE        16.3450    2.4780   18.6890 N.pl3  99  ARG99      -0.0865
     78  CZ        16.4940    1.1640   18.8030 C.cat  99  ARG99       0.5346
     79  NH1       15.4920    0.4120   19.2370 N.pl3  99  ARG99       0.1354
     80  NH2       17.6570    0.5970   18.5140 N.pl3  99  ARG99       0.1354
     81  N          9.2440    2.9350   14.1610 N.3   102  TYR102     -0.1227
     82  CA         8.9530    1.6550   14.7880 C.3   102  TYR102      0.1736
     83  C          8.1790    1.9170   16.0780 C.2   102  TYR102      0.2595
     84  O          7.0940    1.3740   16.2990 O.2   102  TYR102     -0.2718
     85  CB        10.2760    0.9260   15.1000 C.3   102  TYR102      0.0548
     86  CG        10.1540   -0.3060   15.9650 C.ar  102  TYR102     -0.0200
     87  CD1        9.8650   -1.5460   15.4100 C.ar  102  TYR102     -0.0009
     88  CD2       10.3210   -0.2310   17.3490 C.ar  102  TYR102     -0.0009
     89  CE1        9.7400   -2.6880   16.2150 C.ar  102  TYR102      0.0417
     90  CE2       10.2010   -1.3630   18.1650 C.ar  102  TYR102      0.0417
     91  CZ         9.9060   -2.5830   17.5930 C.ar  102  TYR102      0.1957
     92  OH         9.7470   -3.6890   18.3970 O.3   102  TYR102     -0.2866
     93  N          8.7330    2.7710   16.9200 N.am  103  ILE103     -0.1980
     94  CA         8.1120    3.0970   18.1850 C.3   103  ILE103      0.1595
     95  C          6.7010    3.6100   17.9450 C.2   103  ILE103      0.2287
     96  O          5.7370    3.1470   18.5570 O.2   103  ILE103     -0.2864
     97  CB         8.9810    4.1280   18.9380 C.3   103  ILE103      0.0276
     98  CG1       10.2690    3.4510   19.4310 C.3   103  ILE103      0.0022
     99  CG2        8.1980    4.7470   20.0860 C.3   103  ILE103      0.0022
    100  CD1       11.3080    4.4060   19.9900 C.3   103  ILE103      0.0001
    101  N          3.2670    1.8100   19.4980 N.3   107  TYR107     -0.1241
    102  CA         2.4280    2.5060   20.4720 C.3   107  TYR107      0.1605
    103  C          1.2560    3.3630   19.8940 C.2   107  TYR107      0.2264
    104  O          0.2420    3.5660   20.5570 O.2   107  TYR107     -0.2867
    105  CB         3.3510    3.3650   21.3950 C.3   107  TYR107      0.0534
    106  CG         4.3650    2.5950   22.2460 C.ar  107  TYR107     -0.0201
    107  CD1        3.9650    1.9630   23.4300 C.ar  107  TYR107     -0.0009
    108  CD2        5.7080    2.4480   21.8510 C.ar  107  TYR107     -0.0009
    109  CE1        4.8420    1.2130   24.1820 C.ar  107  TYR107      0.0417
    110  CE2        6.5990    1.6830   22.6250 C.ar  107  TYR107      0.0417
    111  CZ         6.1390    1.0740   23.7880 C.ar  107  TYR107      0.1957
    112  OH         6.9510    0.3760   24.6430 O.3   107  TYR107     -0.2866
    113  N          9.0760   -4.2850   24.0740 N.3   203  ASN203     -0.1225
    114  CA         8.3740   -3.0400   24.3480 C.3   203  ASN203      0.1785
    115  C          7.5180   -3.1580   25.6210 C.2   203  ASN203      0.2598
    116  O          7.2920   -4.2510   26.1510 O.2   203  ASN203     -0.2718
    117  CB         7.5060   -2.6510   23.1420 C.3   203  ASN203      0.1169
    118  CG         8.2910   -2.5750   21.8550 C.2   203  ASN203      0.2627
    119  OD1        8.0410   -3.3160   20.9110 O.2   203  ASN203     -0.2716
    120  ND2        9.2750   -1.7060   21.8180 N.am  203  ASN203     -0.0877
    121  N          7.0460   -2.0180   26.0980 N.am  204  GLY204     -0.1942
    122  CA         6.2300   -1.9900   27.2960 C.3   204  GLY204      0.2014
    123  C          4.7420   -2.2080   27.1090 C.2   204  GLY204      0.2638
    124  O          4.0190   -2.3010   28.1010 O.2   204  GLY204     -0.2714
    125  N          4.2480   -2.2570   25.8750 N.am  205  ASN205     -0.1972
    126  CA         2.8170   -2.4740   25.6900 C.3   205  ASN205      0.1688
    127  C          2.5080   -3.8980   25.2490 C.2   205  ASN205      0.2292
    128  O          1.3740   -4.2190   24.9120 O.2   205  ASN205     -0.2864
    129  CB         2.2160   -1.4540   24.7140 C.3   205  ASN205      0.1181
    130  CG         2.6640   -1.6750   23.2960 C.2   205  ASN205      0.2629
    131  OD1        3.6310   -2.4020   23.0490 O.2   205  ASN205     -0.2716
    132  ND2        1.9760   -1.0480   22.3470 N.am  205  ASN205     -0.0877
@<TRIPOS>BOND
     1    81    82    1
     2    70    71    1
     3    82    85    1
     4    82    83    1
     5    85    86    1
     6    87    86   ar
     7    87    89   ar
     8    71    72    1
     9    71    74    1
    10    72    73    2
    11    86    88   ar
    12    83    84    2
    13    83    93   am
    14    89    91   ar
    15    74    75    1
    16    93    94    1
    17    88    90   ar
    18    91    90   ar
    19    91    92    1
    20    75    76    1
    21    95    94    1
    22    95    96    2
    23    94    97    1
    24    80    78    1
    25    77    78    2
    26    77    76    1
    27    78    79    1
    28    97    98    1
    29    97    99    1
    30    98   100    1
    31   101   102    1
    32   103   102    1
    33   103   104    2
    34    45    43    1
    35   102   105    1
    36   119   118    2
    37    43    44    1
    38    43    42    2
    39   105   106    1
    40   120   118   am
    41   108   106   ar
    42   108   110   ar
    43   118   117    1
    44    42    41    1
    45   106   107   ar
    46   132   130   am
    47   110   111   ar
    48   131   130    2
    49   117   114    1
    50    40    41    1
    51    40    39    1
    52   130   129    1
    53   107   109   ar
    54    34    33    2
    55   111   109   ar
    56   111   112    1
    57    33    32    1
    58    33    35   am
    59   113   114    1
    60    36    39    1
    61    36    35    1
    62    36    37    1
    63    32    31    1
    64   114   115    1
    65   129   126    1
    66    38    37    2
    67   128   127    2
    68   127   126    1
    69   115   121   am
    70   115   116    2
    71   126   125    1
    72   125   123   am
    73   121   122    1
    74    60    59    2
    75    12    11    1
    76    61    59   am
    77   123   122    1
    78   123   124    2
    79    59    58    1
    80    11    10   ar
    81    11     9   ar
    82    30    28    1
    83    26    27    2
    84    26    25    1
    85    28    25    1
    86    28    29    1
    87    10     8   ar
    88    65    64    2
    89    58    57    1
    90     9     7   ar
    91    25    24    1
    92    57    54    1
    93    64    63    1
    94     8     6   ar
    95     7     6   ar
    96     6     5    1
    97    54    55    1
    98    54    53    1
    99    62    63    1
   100    62    55   am
   101    63    66    1
   102    55    56    2
   103    20    22   ar
   104    20    18   ar
   105    22    23   ar
   106    66    67    1
   107     5     2    1
   108    16    15    2
   109    17    18    1
   110    17    14    1
   111    18    19   ar
   112    23    21   ar
   113    15    14    1
   114    13    14    1
   115    13     3   am
   116     2     3    1
   117     2     1    1
   118    19    21   ar
   119    67    68    1
   120    67    69    1
   121     3     4    2
   122    52    50    1
   123    50    47    1
   124    50    51    1
   125    47    46    1
   126    47    48    1
   127    49    48    2
