@<TRIPOS>MOLECULE
tmp/12gsB00.pdb
 165 162 0 0 0
SMALL
GASTEIGER

@<TRIPOS>ATOM
      1  N         20.0730   21.6530   -0.2290 N.3     6  TYR6       -0.1227
      2  CA        18.7790   21.6640    0.4380 C.3     6  TYR6        0.1736
      3  C         17.7050   22.4000   -0.3510 C.2     6  TYR6        0.2595
      4  O         17.9850   23.0640   -1.3480 O.2     6  TYR6       -0.2718
      5  CB        18.9660   22.3450    1.7940 C.3     6  TYR6        0.0548
      6  CG        17.8870   22.1170    2.8230 C.ar    6  TYR6       -0.0200
      7  CD1       17.4340   20.8340    3.1170 C.ar    6  TYR6       -0.0009
      8  CD2       17.3870   23.1820    3.5740 C.ar    6  TYR6       -0.0009
      9  CE1       16.5180   20.6180    4.1400 C.ar    6  TYR6        0.0417
     10  CE2       16.4720   22.9740    4.5990 C.ar    6  TYR6        0.0417
     11  CZ        16.0460   21.6900    4.8790 C.ar    6  TYR6        0.1957
     12  OH        15.1760   21.4720    5.9200 O.3     6  TYR6       -0.2866
     13  N         16.4700   22.2760    0.1110 N.am    7  PHE7       -0.1963
     14  CA        15.3520   22.9610   -0.5090 C.3     7  PHE7        0.1756
     15  C         15.4650   24.4070   -0.0510 C.2     7  PHE7        0.2461
     16  O         16.1680   24.7090    0.9120 O.2     7  PHE7       -0.2730
     17  CB        14.0260   22.3650   -0.0310 C.3     7  PHE7        0.0574
     18  CG        13.8670   20.9060   -0.3600 C.ar    7  PHE7       -0.0200
     19  CD1       13.5140   20.5030   -1.6490 C.ar    7  PHE7       -0.0042
     20  CD2       14.0970   19.9310    0.6130 C.ar    7  PHE7       -0.0042
     21  CE1       13.3930   19.1520   -1.9620 C.ar    7  PHE7       -0.0003
     22  CE2       13.9780   18.5800    0.3100 C.ar    7  PHE7       -0.0003
     23  CZ        13.6250   18.1880   -0.9840 C.ar    7  PHE7       -0.0000
     24  N         14.7760   25.3260   -0.7360 N.am    8  PRO8       -0.2716
     25  CA        14.8490   26.7320   -0.3380 C.3     8  PRO8        0.1536
     26  C         14.0220   27.0440    0.9090 C.2     8  PRO8        0.2598
     27  O         12.9940   27.7140    0.8300 O.2     8  PRO8       -0.2715
     28  CB        14.3400   27.4750   -1.5720 C.3     8  PRO8        0.0310
     29  CG        13.3950   26.5180   -2.2160 C.3     8  PRO8        0.0237
     30  CD        13.9030   25.1260   -1.9080 C.3     8  PRO8        0.0939
     31  N         14.4600   26.5270    2.0550 N.am    9  VAL9       -0.1978
     32  CA        13.7870   26.7690    3.3300 C.3     9  VAL9        0.1596
     33  C         14.8630   26.7830    4.3970 C.2     9  VAL9        0.2287
     34  O         15.9970   26.3820    4.1320 O.2     9  VAL9       -0.2864
     35  CB        12.7430   25.6650    3.6850 C.3     9  VAL9        0.0276
     36  CG1       11.7760   25.4660    2.5350 C.3     9  VAL9        0.0022
     37  CG2       13.4380   24.3600    4.0010 C.3     9  VAL9        0.0022
     38  N         14.3680   25.3940    7.6620 N.3    11  GLY11      -0.1210
     39  CA        14.2410   24.0510    8.2090 C.3    11  GLY11       0.1956
     40  C         15.4060   23.5000    9.0060 C.2    11  GLY11       0.2611
     41  O         15.9120   24.1440    9.9180 O.2    11  GLY11      -0.2717
     42  N         15.8430   22.2990    8.6480 N.am   12  ARG12      -0.1979
     43  CA        16.9390   21.6410    9.3470 C.3    12  ARG12       0.1597
     44  C         18.3340   22.1330    8.9670 C.2    12  ARG12       0.2287
     45  O         19.3300   21.5550    9.4020 O.2    12  ARG12      -0.2864
     46  CB        16.8500   20.1220    9.1430 C.3    12  ARG12       0.0334
     47  CG        15.8140   19.4540   10.0240 C.3    12  ARG12       0.0492
     48  CD        15.7500   17.9560    9.7660 C.3    12  ARG12       0.2205
     49  NE        14.8540   17.2760   10.6990 N.pl3  12  ARG12      -0.0865
     50  CZ        15.1740   16.9650   11.9520 C.cat  12  ARG12       0.5346
     51  NH1       16.3710   17.2730   12.4290 N.pl3  12  ARG12       0.1354
     52  NH2       14.2960   16.3450   12.7300 N.pl3  12  ARG12       0.1354
     53  N         11.5630   21.8840   -5.8690 N.3    34  VAL34      -0.1245
     54  CA        10.6110   20.7900   -5.7490 C.3    34  VAL34       0.1561
     55  C         10.5040   20.0050   -7.0490 C.2    34  VAL34       0.2260
     56  O         10.2580   18.8000   -7.0300 O.2    34  VAL34      -0.2867
     57  CB         9.2080   21.3020   -5.3670 C.3    34  VAL34       0.0252
     58  CG1        8.6310   22.1420   -6.5020 C.3    34  VAL34       0.0019
     59  CG2        8.2900   20.1250   -5.0660 C.3    34  VAL34       0.0019
     60  N         13.6270   17.7800   -7.4630 N.3    37  TRP37      -0.1241
     61  CA        13.5020   16.6650   -6.5390 C.3    37  TRP37       0.1605
     62  C         12.5540   15.6120   -7.0930 C.2    37  TRP37       0.2264
     63  O         12.8940   14.4310   -7.1510 O.2    37  TRP37      -0.2867
     64  CB        12.9890   17.1570   -5.1870 C.3    37  TRP37       0.0550
     65  CG        13.0540   16.1260   -4.1010 C.ar   37  TRP37       0.0003
     66  CD1       11.9990   15.5080   -3.4880 C.ar   37  TRP37       0.0946
     67  CD2       14.2350   15.6300   -3.4620 C.ar   37  TRP37       0.0152
     68  NE1       12.4500   14.6570   -2.5040 N.ar   37  TRP37      -0.2442
     69  CE2       13.8210   14.7120   -2.4670 C.ar   37  TRP37       0.0810
     70  CE3       15.6080   15.8680   -3.6340 C.ar   37  TRP37       0.0012
     71  CZ2       14.7290   14.0350   -1.6430 C.ar   37  TRP37       0.0191
     72  CZ3       16.5160   15.1910   -2.8100 C.ar   37  TRP37       0.0001
     73  CH2       16.0660   14.2870   -1.8300 C.ar   37  TRP37       0.0015
     74  N         17.2700   12.3580   -5.3010 N.3    43  LYS43      -0.1245
     75  CA        16.7170   11.6160   -4.1680 C.3    43  LYS43       0.1561
     76  C         17.2200   10.1780   -4.1010 C.2    43  LYS43       0.2260
     77  O         17.5580    9.6830   -3.0250 O.2    43  LYS43      -0.2867
     78  CB        15.1860   11.6240   -4.2400 C.3    43  LYS43       0.0271
     79  CG        14.4860   10.8930   -3.1000 C.3    43  LYS43       0.0035
     80  CD        13.0780   10.4840   -3.5120 C.3    43  LYS43       0.0206
     81  CE        12.1980   10.0960   -2.3290 C.3    43  LYS43       0.1093
     82  NZ        12.8380   10.2520   -0.9890 N.3    43  LYS43      -0.1314
     83  N         17.4390    8.9170    1.1280 N.3    49  GLY49      -0.1210
     84  CA        16.4560    9.5120    0.2370 C.3    49  GLY49       0.1956
     85  C         15.9420   10.8820    0.6470 C.2    49  GLY49       0.2612
     86  O         14.8400   11.2750    0.2670 O.2    49  GLY49      -0.2717
     87  N         16.7420   11.6180    1.4040 N.am   50  GLN50      -0.1965
     88  CA        16.3370   12.9320    1.8700 C.3    50  GLN50       0.1733
     89  C         17.4820   13.9420    1.9090 C.2    50  GLN50       0.2616
     90  O         18.6600   13.6000    1.7450 O.2    50  GLN50      -0.2715
     91  CB        15.7300   12.8160    3.2780 C.3    50  GLN50       0.0408
     92  CG        14.5650   11.8500    3.3880 C.3    50  GLN50       0.0908
     93  CD        13.7800   12.0170    4.6760 C.2    50  GLN50       0.2608
     94  OE1       14.3390   11.9210    5.7700 O.2    50  GLN50      -0.2717
     95  NE2       12.4800   12.2600    4.5540 N.am   50  GLN50      -0.0878
     96  N         17.1090   15.1940    2.1420 N.am   51  LEU51      -0.1964
     97  CA        18.0460   16.3020    2.2520 C.3    51  LEU51       0.1713
     98  C         17.8640   16.7950    3.6840 C.2    51  LEU51       0.2458
     99  O         16.8420   16.5160    4.3040 O.2    51  LEU51      -0.2730
    100  CB        17.6820   17.4090    1.2540 C.3    51  LEU51       0.0310
    101  CG        17.7960   17.0470   -0.2320 C.3    51  LEU51       0.0022
    102  CD1       17.5030   18.2760   -1.0990 C.3    51  LEU51       0.0001
    103  CD2       19.1920   16.5130   -0.5120 C.3    51  LEU51       0.0001
    104  N         18.8160   17.5800    4.2090 N.am   52  PRO52      -0.2727
    105  CA        20.0330   18.0410    3.5430 C.3    52  PRO52       0.1402
    106  C         21.1380   17.0280    3.2680 C.2    52  PRO52       0.2269
    107  O         21.2340   15.9690    3.9010 O.2    52  PRO52      -0.2865
    108  CB        20.5310   19.1550    4.4610 C.3    52  PRO52       0.0296
    109  CG        20.1130   18.6880    5.8200 C.3    52  PRO52       0.0237
    110  CD        18.7560   18.0540    5.6060 C.3    52  PRO52       0.0939
    111  N         21.9890   13.7200    7.0520 N.3    63  GLN63      -0.1231
    112  CA        21.4830   13.8650    8.4190 C.3    63  GLN63       0.1698
    113  C         21.9570   15.1780    9.0550 C.2    63  GLN63       0.2593
    114  O         23.1380   15.3450    9.3510 O.2    63  GLN63      -0.2718
    115  CB        21.9080   12.6700    9.2760 C.3    63  GLN63       0.0381
    116  CG        21.2660   11.3510    8.8530 C.3    63  GLN63       0.0905
    117  CD        19.8470   11.2130    9.3650 C.2    63  GLN63       0.2608
    118  OE1       19.3260   12.1190   10.0220 O.2    63  GLN63      -0.2717
    119  NE2       19.2070   10.0810    9.0660 N.am   63  GLN63      -0.0878
    120  N         21.0170   16.0990    9.2640 N.am   64  SER64      -0.1938
    121  CA        21.3100   17.4120    9.8350 C.3    64  SER64       0.2055
    122  C         22.1570   17.4210   11.1090 C.2    64  SER64       0.2643
    123  O         23.0310   18.2750   11.2610 O.2    64  SER64      -0.2714
    124  CB        20.0050   18.1660   10.0940 C.3    64  SER64       0.2130
    125  OG        19.2340   17.5220   11.0890 O.3    64  SER64      -0.2179
    126  N         21.9080   16.4850   12.0240 N.am   65  ASN65      -0.1971
    127  CA        22.6700   16.4320   13.2760 C.3    65  ASN65       0.1688
    128  C         24.0770   15.8670   13.0990 C.2    65  ASN65       0.2292
    129  O         24.9660   16.1140   13.9180 O.2    65  ASN65      -0.2864
    130  CB        21.8950   15.6300   14.3190 C.3    65  ASN65       0.1181
    131  CG        20.7340   16.4020   14.8830 C.2    65  ASN65       0.2629
    132  OD1       20.8890   17.5500   15.2810 O.2    65  ASN65      -0.2716
    133  ND2       19.5570   15.7850   14.9120 N.am   65  ASN65      -0.0877
    134  N         16.5810   18.0070   19.3920 N.3    96  GLU96      -0.1245
    135  CA        16.0680   17.2190   18.2820 C.3    96  GLU96       0.1567
    136  C         14.6820   16.6770   18.5860 C.2    96  GLU96       0.2260
    137  O         13.7960   16.6930   17.7250 O.2    96  GLU96      -0.2867
    138  CB        17.0320   16.0730   17.9620 C.3    96  GLU96       0.0388
    139  CG        16.4570   15.0300   17.0270 C.3    96  GLU96       0.1160
    140  CD        16.3120   15.5400   15.6050 C.2    96  GLU96       0.3649
    141  OE1       16.8060   16.6460   15.3000 O.co2  96  GLU96      -0.2457
    142  OE2       15.6950   14.8390   14.7870 O.co2  96  GLU96      -0.2457
    143  N          3.8440   20.1990    9.5560 N.3   107  TYR107     -0.1241
    144  CA         3.5070   19.4620    8.3380 C.3   107  TYR107      0.1605
    145  C          2.3920   18.4190    8.4410 C.2   107  TYR107      0.2264
    146  O          1.8320   18.0210    7.4230 O.2   107  TYR107     -0.2867
    147  CB         4.7590   18.7570    7.7910 C.3   107  TYR107      0.0534
    148  CG         5.8810   19.6720    7.3400 C.ar  107  TYR107     -0.0201
    149  CD1        5.9520   20.1430    6.0200 C.ar  107  TYR107     -0.0009
    150  CD2        6.8900   20.0480    8.2240 C.ar  107  TYR107     -0.0009
    151  CE1        7.0020   20.9610    5.6030 C.ar  107  TYR107      0.0417
    152  CE2        7.9380   20.8620    7.8180 C.ar  107  TYR107      0.0417
    153  CZ         7.9950   21.3180    6.5100 C.ar  107  TYR107      0.1957
    154  OH         9.0500   22.1210    6.1150 O.3   107  TYR107     -0.2866
    155  N         11.7380   30.9570    3.7200 N.3   201  PRO201     -0.2116
    156  CA        10.6720   30.6120    4.6700 C.3   201  PRO201      0.1372
    157  C         11.2160   29.6570    5.7440 C.2   201  PRO201      0.2244
    158  O         12.1880   28.9400    5.5120 O.2   201  PRO201     -0.2868
    159  CB         9.6070   29.9370    3.7980 C.3   201  PRO201      0.0268
    160  CG        10.3560   29.4140    2.6150 C.3   201  PRO201      0.0207
    161  CD        11.5550   30.3120    2.4060 C.3   201  PRO201      0.0892
    162  N          8.5340   24.5170    4.5520 N.3   204  GLY204     -0.1225
    163  CA         8.1880   24.4260    3.1410 C.3   204  GLY204      0.1811
    164  C          6.7160   24.4230    2.7560 C.2   204  GLY204      0.2280
    165  O          6.3940   24.3830    1.5640 O.2   204  GLY204     -0.2866
@<TRIPOS>BOND
     1    60    61    1
     2    63    62    2
     3    62    61    1
     4    55    56    2
     5    55    54    1
     6    61    64    1
     7    58    57    1
     8    53    54    1
     9    54    57    1
    10    57    59    1
    11    74    75    1
    12    64    65    1
    13    78    75    1
    14    78    79    1
    15    75    76    1
    16    65    66   ar
    17    65    67   ar
    18    76    77    2
    19    70    67   ar
    20    70    72   ar
    21    80    79    1
    22    80    81    1
    23    66    68   ar
    24    67    69   ar
    25    72    73   ar
    26    68    69   ar
    27    69    71   ar
    28    81    82    1
    29    29    30    1
    30    29    28    1
    31    21    19   ar
    32    21    23   ar
    33    30    24    1
    34    73    71   ar
    35    19    18   ar
    36    28    25    1
    37     4     3    2
    38   102   101    1
    39    23    22   ar
    40    24    25    1
    41    24    15   am
    42   103   101    1
    43    14    15    1
    44    14    17    1
    45    14    13    1
    46    18    17    1
    47    18    20   ar
    48     3    13   am
    49     3     2    1
    50    25    26    1
    51   101   100    1
    52     1     2    1
    53    15    16    2
    54    84    85    1
    55    84    83    1
    56    86    85    2
    57    22    20   ar
    58     2     5    1
    59    85    87   am
    60    27    26    2
    61    26    31   am
    62   100    97    1
    63    87    88    1
    64   165   164    2
    65    90    89    2
    66     5     6    1
    67    88    89    1
    68    88    91    1
    69    89    96   am
    70    31    32    1
    71    96    97    1
    72    97    98    1
    73   161   160    1
    74   161   155    1
    75    36    35    1
    76   160   159    1
    77   164   163    1
    78     6     7   ar
    79     6     8   ar
    80     7     9   ar
    81   163   162    1
    82   106   105    1
    83   106   107    2
    84    91    92    1
    85    32    35    1
    86    32    33    1
    87    92    93    1
    88   105   104    1
    89   105   108    1
    90     8    10   ar
    91    98   104   am
    92    98    99    2
    93    35    37    1
    94   155   156    1
    95   159   156    1
    96    34    33    2
    97     9    11   ar
    98   104   110    1
    99   108   109    1
   100    95    93   am
   101    10    11   ar
   102   156   157    1
   103    93    94    2
   104    11    12    1
   105   158   157    2
   106   151   149   ar
   107   151   153   ar
   108   110   109    1
   109   149   148   ar
   110   154   153    1
   111   153   152   ar
   112   111   112    1
   113   148   147    1
   114   148   150   ar
   115   146   145    2
   116    38    39    1
   117   147   144    1
   118   152   150   ar
   119    39    40    1
   120   144   145    1
   121   144   143    1
   122   112   113    1
   123   112   115    1
   124    42    40   am
   125    42    43    1
   126   116   115    1
   127   116   117    1
   128    44    43    1
   129    44    45    2
   130    40    41    2
   131   113   120   am
   132   113   114    2
   133   119   117   am
   134    46    43    1
   135    46    47    1
   136   120   121    1
   137   117   118    2
   138    48    47    1
   139    48    49    1
   140   121   124    1
   141   121   122    1
   142   124   125    1
   143    49    50    2
   144   122   123    2
   145   122   126   am
   146    50    51    1
   147    50    52    1
   148   126   127    1
   149   128   127    1
   150   128   129    2
   151   127   130    1
   152   130   131    1
   153   142   140   ar
   154   131   133   am
   155   131   132    2
   156   141   140   ar
   157   140   139    1
   158   139   138    1
   159   137   136    2
   160   138   135    1
   161   135   136    1
   162   135   134    1
