@<TRIPOS>MOLECULE
tmp/13gsB01.pdb
 111 107 0 0 0
SMALL
GASTEIGER

@<TRIPOS>ATOM
      1  N         20.5220   21.7920   -0.0920 N.3     6  TYR6       -0.1227
      2  CA        19.2460   21.8380    0.6030 C.3     6  TYR6        0.1736
      3  C         18.2070   22.6160   -0.1800 C.2     6  TYR6        0.2595
      4  O         18.5240   23.2680   -1.1750 O.2     6  TYR6       -0.2718
      5  CB        19.4490   22.4870    1.9810 C.3     6  TYR6        0.0548
      6  CG        18.3370   22.2530    2.9750 C.ar    6  TYR6       -0.0200
      7  CD1       17.8910   20.9650    3.2710 C.ar    6  TYR6       -0.0009
      8  CD2       17.7690   23.3240    3.6710 C.ar    6  TYR6       -0.0009
      9  CE1       16.9130   20.7490    4.2390 C.ar    6  TYR6        0.0417
     10  CE2       16.7920   23.1200    4.6360 C.ar    6  TYR6        0.0417
     11  CZ        16.3720   21.8320    4.9190 C.ar    6  TYR6        0.1957
     12  OH        15.4210   21.6350    5.8960 O.3     6  TYR6       -0.2866
     13  N         16.9670   22.5300    0.2840 N.am    7  PHE7       -0.1963
     14  CA        15.8500   23.2440   -0.3050 C.3     7  PHE7        0.1756
     15  C         16.0200   24.7040    0.0760 C.2     7  PHE7        0.2461
     16  O         16.7790   25.0280    0.9850 O.2     7  PHE7       -0.2730
     17  CB        14.5430   22.7580    0.3030 C.3     7  PHE7        0.0574
     18  CG        14.2860   21.3060    0.0850 C.ar    7  PHE7       -0.0200
     19  CD1       14.0390   20.8210   -1.1990 C.ar    7  PHE7       -0.0042
     20  CD2       14.2870   20.4150    1.1560 C.ar    7  PHE7       -0.0042
     21  CE1       13.8000   19.4770   -1.4140 C.ar    7  PHE7       -0.0003
     22  CE2       14.0470   19.0640    0.9530 C.ar    7  PHE7       -0.0003
     23  CZ        13.8030   18.5930   -0.3330 C.ar    7  PHE7       -0.0000
     24  N         15.3910   25.6170   -0.6720 N.am    8  PRO8       -0.2716
     25  CA        15.5330   27.0280   -0.3020 C.3     8  PRO8        0.1536
     26  C         14.7360   27.4770    0.9410 C.2     8  PRO8        0.2598
     27  O         13.9350   28.4070    0.8570 O.2     8  PRO8       -0.2715
     28  CB        15.1000   27.7600   -1.5690 C.3     8  PRO8        0.0310
     29  CG        14.0970   26.8350   -2.1860 C.3     8  PRO8        0.0237
     30  CD        14.6290   25.4520   -1.9260 C.3     8  PRO8        0.0939
     31  N         14.9650   26.8110    2.0790 N.am    9  VAL9       -0.1978
     32  CA        14.3130   27.1550    3.3520 C.3     9  VAL9        0.1596
     33  C         15.4020   27.1420    4.4270 C.2     9  VAL9        0.2287
     34  O         16.5070   26.6540    4.1870 O.2     9  VAL9       -0.2864
     35  CB        13.2120   26.1340    3.8160 C.3     9  VAL9        0.0276
     36  CG1       12.0540   26.1340    2.8680 C.3     9  VAL9        0.0022
     37  CG2       13.7990   24.7460    3.9520 C.3     9  VAL9        0.0022
     38  N         14.8540   25.8520    7.6770 N.3    11  GLY11      -0.1210
     39  CA        14.6530   24.5090    8.1990 C.3    11  GLY11       0.1956
     40  C         15.7700   23.9070    9.0280 C.2    11  GLY11       0.2611
     41  O         16.2940   24.5440    9.9470 O.2    11  GLY11      -0.2717
     42  N         16.1220   22.6630    8.7180 N.am   12  ARG12      -0.1979
     43  CA        17.1730   21.9720    9.4530 C.3    12  ARG12       0.1597
     44  C         18.5890   22.4390    9.1400 C.2    12  ARG12       0.2287
     45  O         19.5450   21.9160    9.7110 O.2    12  ARG12      -0.2864
     46  CB        17.0620   20.4660    9.2130 C.3    12  ARG12       0.0334
     47  CG        15.9190   19.8240    9.9740 C.3    12  ARG12       0.0492
     48  CD        15.9110   18.3200    9.7830 C.3    12  ARG12       0.2205
     49  NE        14.9750   17.6890   10.7060 N.pl3  12  ARG12      -0.0865
     50  CZ        15.2580   17.4070   11.9730 C.cat  12  ARG12       0.5346
     51  NH1       16.4630   17.6820   12.4600 N.pl3  12  ARG12       0.1354
     52  NH2       14.3440   16.8350   12.7460 N.pl3  12  ARG12       0.1354
     53  N         11.9080   22.2950   -5.6240 N.3    34  VAL34      -0.1245
     54  CA        10.9150   21.2270   -5.5400 C.3    34  VAL34       0.1561
     55  C         10.8290   20.4700   -6.8640 C.2    34  VAL34       0.2260
     56  O         10.5450   19.2680   -6.8910 O.2    34  VAL34      -0.2867
     57  CB         9.5100   21.7940   -5.1720 C.3    34  VAL34       0.0252
     58  CG1        8.9810   22.6610   -6.3120 C.3    34  VAL34       0.0019
     59  CG2        8.5510   20.6460   -4.8550 C.3    34  VAL34       0.0019
     60  N         16.7880   11.7630    1.7350 N.3    50  GLN50      -0.1245
     61  CA        16.4710   13.0830    2.2610 C.3    50  GLN50       0.1566
     62  C         17.6530   14.0420    2.2550 C.2    50  GLN50       0.2260
     63  O         18.8090   13.6250    2.1650 O.2    50  GLN50      -0.2867
     64  CB        15.9580   12.9550    3.6950 C.3    50  GLN50       0.0367
     65  CG        14.7140   12.1080    3.8180 C.3    50  GLN50       0.0905
     66  CD        14.1330   12.1410    5.2130 C.2    50  GLN50       0.2608
     67  OE1       14.7710   11.7120    6.1810 O.2    50  GLN50      -0.2717
     68  NE2       12.9120   12.6540    5.3280 N.am   50  GLN50      -0.0878
     69  N          8.1400   20.6030   14.0890 N.3   103  ILE103     -0.1245
     70  CA         7.9900   20.2340   12.6890 C.3   103  ILE103      0.1561
     71  C          6.6690   19.4920   12.4630 C.2   103  ILE103      0.2260
     72  O          5.9890   19.7100   11.4600 O.2   103  ILE103     -0.2867
     73  CB         9.2130   19.3890   12.2370 C.3   103  ILE103      0.0252
     74  CG1       10.4280   20.3080   12.0900 C.3   103  ILE103      0.0019
     75  CG2        8.9390   18.7150   10.9140 C.3   103  ILE103      0.0019
     76  CD1       11.7210   19.5610   12.0360 C.3   103  ILE103      0.0001
     77  N          3.8540   20.9920    9.8560 N.3   107  TYR107     -0.1241
     78  CA         3.4410   20.2530    8.6670 C.3   107  TYR107      0.1605
     79  C          2.2410   19.3190    8.8340 C.2   107  TYR107      0.2264
     80  O          1.5310   19.0660    7.8660 O.2   107  TYR107     -0.2867
     81  CB         4.6350   19.4520    8.1180 C.3   107  TYR107      0.0534
     82  CG         5.7900   20.3070    7.6100 C.ar  107  TYR107     -0.0201
     83  CD1        5.7330   20.9250    6.3610 C.ar  107  TYR107     -0.0009
     84  CD2        6.9380   20.4940    8.3800 C.ar  107  TYR107     -0.0009
     85  CE1        6.7910   21.7070    5.8920 C.ar  107  TYR107      0.0417
     86  CE2        7.9990   21.2720    7.9210 C.ar  107  TYR107      0.0417
     87  CZ         7.9210   21.8770    6.6760 C.ar  107  TYR107      0.1957
     88  OH         8.9750   22.6410    6.2200 O.3   107  TYR107     -0.2866
     89  N         12.3510   31.4910    3.7690 N.3   201  PRO201     -0.2116
     90  CA        11.2650   31.2230    4.7220 C.3   201  PRO201      0.1372
     91  C         11.7600   30.1840    5.7420 C.2   201  PRO201      0.2244
     92  O         12.6750   29.4140    5.4460 O.2   201  PRO201     -0.2868
     93  CB        10.1710   30.6450    3.8470 C.3   201  PRO201      0.0268
     94  CG        10.9380   29.9470    2.7910 C.3   201  PRO201      0.0207
     95  CD        12.0340   30.9260    2.4500 C.3   201  PRO201      0.0892
     96  N         10.0630   27.5290    7.0600 N.3   203  ASN203     -0.1225
     97  CA         9.6140   26.2040    6.6370 C.3   203  ASN203      0.1785
     98  C          9.1600   26.1800    5.1790 C.2   203  ASN203      0.2597
     99  O          8.9420   27.2260    4.5570 O.2   203  ASN203     -0.2718
    100  CB         8.4730   25.7430    7.5400 C.3   203  ASN203      0.1169
    101  CG         8.8680   25.7460    8.9930 C.2   203  ASN203      0.2627
    102  OD1        9.7790   25.0240    9.4000 O.2   203  ASN203     -0.2716
    103  ND2        8.1920   26.5680    9.7900 N.am  203  ASN203     -0.0877
    104  N          9.0110   24.9690    4.6480 N.am  204  GLY204     -0.1957
    105  CA         8.6090   24.7900    3.2640 C.3   204  GLY204      0.1869
    106  C          7.1460   24.9700    2.9030 C.2   204  GLY204      0.2309
    107  O          6.8220   25.0670    1.7180 O.2   204  GLY204     -0.2863
    108  N          5.2300   27.5170    4.1660 N.3   206  GLY206     -0.1225
    109  CA         4.8330   28.8880    4.4420 C.3   206  GLY206      0.1811
    110  C          4.3420   29.1750    5.8530 C.2   206  GLY206      0.2280
    111  O          4.1480   30.3390    6.2210 O.2   206  GLY206     -0.2866
@<TRIPOS>BOND
     1    56    55    2
     2    55    54    1
     3    58    57    1
     4    53    54    1
     5    54    57    1
     6    57    59    1
     7    29    30    1
     8    29    28    1
     9    30    24    1
    10    28    25    1
    11    21    19   ar
    12    21    23   ar
    13    19    18   ar
    14     4     3    2
    15    24    25    1
    16    24    15   am
    17    23    22   ar
    18    14    15    1
    19    14    13    1
    20    14    17    1
    21    25    26    1
    22     3    13   am
    23     3     2    1
    24     1     2    1
    25    15    16    2
    26    18    17    1
    27    18    20   ar
    28     2     5    1
    29    27    26    2
    30    26    31   am
    31    22    20   ar
    32   107   106    2
    33    60    61    1
    34     5     6    1
    35    31    32    1
    36    63    62    2
    37    62    61    1
    38    61    64    1
    39    95    94    1
    40    95    89    1
    41    94    93    1
    42    36    35    1
    43   106   105    1
    44     6     7   ar
    45     6     8   ar
    46   105   104    1
    47     7     9   ar
    48    32    35    1
    49    32    33    1
    50     8    10   ar
    51    64    65    1
    52    89    90    1
    53    35    37    1
    54    65    66    1
    55    93    90    1
    56   108   109    1
    57    34    33    2
    58     9    11   ar
    59   109   110    1
    60    99    98    2
    61    10    11   ar
    62   104    98   am
    63    90    91    1
    64    11    12    1
    65    98    97    1
    66    66    68   am
    67    66    67    2
    68    92    91    2
    69   110   111    2
    70    85    83   ar
    71    85    87   ar
    72    88    87    1
    73    83    82   ar
    74    97    96    1
    75    97   100    1
    76    87    86   ar
    77   100   101    1
    78    82    81    1
    79    82    84   ar
    80    38    39    1
    81    80    79    2
    82    86    84   ar
    83    81    78    1
    84    39    40    1
    85    78    79    1
    86    78    77    1
    87    42    40   am
    88    42    43    1
    89   101   102    2
    90   101   103   am
    91    40    41    2
    92    44    43    1
    93    44    45    2
    94    46    43    1
    95    46    47    1
    96    48    47    1
    97    48    49    1
    98    49    50    2
    99    75    73    1
   100    72    71    2
   101    50    51    1
   102    50    52    1
   103    76    74    1
   104    74    73    1
   105    73    70    1
   106    71    70    1
   107    70    69    1
