@<TRIPOS>MOLECULE
tmp/13pkD00.pdb
 169 163 0 0 0
SMALL
GASTEIGER

@<TRIPOS>ATOM
      1  N          0.6900   90.4230  117.0520 N.3   213  GLY213     -0.1210
      2  CA        -0.1270   89.3190  117.5080 C.3   213  GLY213      0.1956
      3  C         -0.3400   89.3210  119.0030 C.2   213  GLY213      0.2612
      4  O         -0.4860   90.3760  119.6220 O.2   213  GLY213     -0.2717
      5  N         -0.3860   88.1300  119.5810 N.am  214  ALA214     -0.1965
      6  CA        -0.5760   87.9730  121.0120 C.3   214  ALA214      0.1728
      7  C          0.5480   87.0810  121.5610 C.2   214  ALA214      0.2616
      8  O          1.6740   87.1340  121.0560 O.2   214  ALA214     -0.2715
      9  CB        -1.9290   87.3750  121.2720 C.3   214  ALA214      0.0334
     10  N          0.2580   86.2540  122.5690 N.am  215  LYS215     -0.1977
     11  CA         1.2790   85.3700  123.1580 C.3   215  LYS215      0.1596
     12  C          2.4610   86.2440  123.5780 C.2   215  LYS215      0.2287
     13  O          3.6250   85.8540  123.4970 O.2   215  LYS215     -0.2864
     14  CB         1.7800   84.3630  122.1250 C.3   215  LYS215      0.0298
     15  CG         0.7780   83.3820  121.5600 C.3   215  LYS215      0.0038
     16  CD         1.3800   82.8370  120.2510 C.3   215  LYS215      0.0206
     17  CE         0.5650   81.7320  119.6400 C.3   215  LYS215      0.1093
     18  NZ         0.8410   80.4100  120.2830 N.3   215  LYS215     -0.1314
     19  N          6.4470   85.5070  123.2460 N.3   219  LYS219     -0.1245
     20  CA         6.9840   86.1930  122.1010 C.3   219  LYS219      0.1561
     21  C          7.9580   87.2880  122.5050 C.2   219  LYS219      0.2260
     22  O          9.0200   87.4340  121.8930 O.2   219  LYS219     -0.2867
     23  CB         5.8350   86.7440  121.2430 C.3   219  LYS219      0.0271
     24  CG         6.2130   87.0070  119.7820 C.3   219  LYS219      0.0035
     25  CD         5.0370   87.4720  118.9270 C.3   219  LYS219      0.0206
     26  CE         4.0460   86.3490  118.6710 C.3   219  LYS219      0.1093
     27  NZ         2.9840   86.7510  117.7200 N.3   219  LYS219     -0.1314
     28  N          0.1680   94.8210  117.3090 N.3   237  GLY237     -0.1210
     29  CA        -0.6370   93.8390  118.0140 C.3   237  GLY237      0.1956
     30  C         -0.6620   94.1090  119.5080 C.2   237  GLY237      0.2611
     31  O         -0.4530   95.2450  119.9230 O.2   237  GLY237     -0.2717
     32  N         -0.9030   93.0740  120.3100 N.am  238  ALA238     -0.1979
     33  CA        -0.9490   93.1980  121.7720 C.3   238  ALA238      0.1597
     34  C          0.4290   93.5050  122.3470 C.2   238  ALA238      0.2287
     35  O          0.5640   94.2260  123.3350 O.2   238  ALA238     -0.2864
     36  CB        -1.4870   91.9280  122.3870 C.3   238  ALA238      0.0319
     37  N          1.4270   97.1070  123.7060 N.3   241  TYR241     -0.1241
     38  CA         0.9910   97.6510  124.9920 C.3   241  TYR241      0.1605
     39  C          1.9330   97.4650  126.1610 C.2   241  TYR241      0.2264
     40  O          2.1160   98.3810  126.9440 O.2   241  TYR241     -0.2867
     41  CB        -0.4210   97.2000  125.2960 C.3   241  TYR241      0.0534
     42  CG        -1.2570   97.4600  124.0830 C.ar  241  TYR241     -0.0201
     43  CD1       -1.2450   98.7240  123.4590 C.ar  241  TYR241     -0.0009
     44  CD2       -1.9140   96.4240  123.4490 C.ar  241  TYR241     -0.0009
     45  CE1       -1.8550   98.9380  122.2180 C.ar  241  TYR241      0.0417
     46  CE2       -2.5360   96.6220  122.2030 C.ar  241  TYR241      0.0417
     47  CZ        -2.4980   97.8780  121.5910 C.ar  241  TYR241      0.1957
     48  OH        -3.0810   98.0330  120.3540 O.3   241  TYR241     -0.2866
     49  N         -4.4010   94.8230  126.2400 N.3   255  LYS255     -0.1245
     50  CA        -3.6540   93.6410  126.6470 C.3   255  LYS255      0.1561
     51  C         -2.2440   94.0390  127.0830 C.2   255  LYS255      0.2260
     52  O         -1.5380   94.7310  126.3440 O.2   255  LYS255     -0.2867
     53  CB        -3.6200   92.6520  125.4620 C.3   255  LYS255      0.0271
     54  CG        -3.1790   91.2340  125.8060 C.3   255  LYS255      0.0035
     55  CD        -1.6560   91.1460  125.9450 C.3   255  LYS255      0.0206
     56  CE        -1.2310   89.8770  126.6600 C.3   255  LYS255      0.1093
     57  NZ        -1.7840   89.8480  128.0510 N.3   255  LYS255     -0.1314
     58  N        -14.1550   94.6910  123.2110 N.3   290  PHE290     -0.1241
     59  CA       -13.5940   93.8590  122.1560 C.3   290  PHE290      0.1605
     60  C        -14.7150   93.5110  121.1870 C.2   290  PHE290      0.2264
     61  O        -15.1260   92.3560  121.0860 O.2   290  PHE290     -0.2867
     62  CB       -13.0310   92.5840  122.7910 C.3   290  PHE290      0.0534
     63  CG       -12.0180   91.8620  121.9450 C.ar  290  PHE290     -0.0203
     64  CD1      -12.4150   90.9660  120.9560 C.ar  290  PHE290     -0.0042
     65  CD2      -10.6490   92.0250  122.1950 C.ar  290  PHE290     -0.0042
     66  CE1      -11.4620   90.2430  120.2240 C.ar  290  PHE290     -0.0003
     67  CE2       -9.6820   91.3030  121.4670 C.ar  290  PHE290     -0.0003
     68  CZ       -10.0900   90.4090  120.4840 C.ar  290  PHE290     -0.0000
     69  N         -6.8890   99.3180  122.9030 N.3   310  ALA310     -0.1231
     70  CA        -6.4160   99.4890  121.5360 C.3   310  ALA310      0.1694
     71  C         -6.5170   98.1340  120.8400 C.2   310  ALA310      0.2591
     72  O         -6.0590   97.1160  121.3720 O.2   310  ALA310     -0.2718
     73  CB        -4.9920  100.0000  121.5260 C.3   310  ALA310      0.0304
     74  N         -7.1920   98.1230  119.6950 N.am  311  LEU311     -0.1980
     75  CA        -7.4080   96.9080  118.9260 C.3   311  LEU311      0.1596
     76  C         -6.6780   96.8450  117.5720 C.2   311  LEU311      0.2287
     77  O         -6.7410   95.8420  116.8720 O.2   311  LEU311     -0.2864
     78  CB        -8.9150   96.6810  118.7680 C.3   311  LEU311      0.0297
     79  CG        -9.6290   96.3800  120.0960 C.3   311  LEU311      0.0022
     80  CD1      -11.1400   96.3680  119.9460 C.3   311  LEU311      0.0001
     81  CD2       -9.1320   95.0490  120.6480 C.3   311  LEU311      0.0001
     82  N          5.7320   88.5410  111.8550 N.3   334  ASN334     -0.1225
     83  CA         4.9960   87.5630  112.6290 C.3   334  ASN334      0.1785
     84  C          4.0260   88.2360  113.5710 C.2   334  ASN334      0.2598
     85  O          4.4330   88.9430  114.4890 O.2   334  ASN334     -0.2718
     86  CB         5.8860   86.6460  113.4640 C.3   334  ASN334      0.1169
     87  CG         5.0640   85.7660  114.4050 C.2   334  ASN334      0.2627
     88  OD1        5.2260   85.8140  115.6230 O.2   334  ASN334     -0.2716
     89  ND2        4.1310   85.0050  113.8410 N.am  334  ASN334     -0.0877
     90  N          2.7430   87.9690  113.3620 N.am  335  GLY335     -0.1943
     91  CA         1.7040   88.5120  114.2180 C.3   335  GLY335      0.1998
     92  C          0.9280   89.6660  113.6410 C.2   335  GLY335      0.2481
     93  O          1.5270   90.6280  113.1870 O.2   335  GLY335     -0.2729
     94  N         -0.4050   89.5770  113.5900 N.am  336  PRO336     -0.2715
     95  CA        -1.2360   90.6540  113.0560 C.3   336  PRO336      0.1536
     96  C         -1.0260   91.9390  113.8710 C.2   336  PRO336      0.2598
     97  O         -0.7710   91.8930  115.0780 O.2   336  PRO336     -0.2715
     98  CB        -2.6450   90.0910  113.2190 C.3   336  PRO336      0.0310
     99  CG        -2.4410   88.6680  112.9630 C.3   336  PRO336      0.0237
    100  CD        -1.2060   88.3650  113.7790 C.3   336  PRO336      0.0939
    101  N         -1.1220   93.0860  113.2120 N.am  337  MET337     -0.1964
    102  CA        -0.9150   94.3490  113.8930 C.3   337  MET337      0.1736
    103  C         -2.1000   94.7230  114.7620 C.2   337  MET337      0.2617
    104  O         -2.0150   95.6080  115.6050 O.2   337  MET337     -0.2715
    105  CB        -0.6290   95.4370  112.8630 C.3   337  MET337      0.0427
    106  CG         0.6860   95.2460  112.1110 C.3   337  MET337      0.0599
    107  SD         2.1770   95.6390  113.0680 S.3   337  MET337     -0.1393
    108  CE         2.6770   94.0510  113.5720 C.3   337  MET337      0.0692
    109  N         -3.2070   94.0350  114.5510 N.am  338  GLY338     -0.1940
    110  CA        -4.4120   94.2900  115.3130 C.3   338  GLY338      0.2014
    111  C         -5.3490   93.0990  115.2080 C.2   338  GLY338      0.2639
    112  O         -4.9730   92.0370  114.7080 O.2   338  GLY338     -0.2714
    113  N         -6.5720   93.2660  115.6850 N.am  339  VAL339     -0.1963
    114  CA        -7.5570   92.2040  115.6430 C.3   339  VAL339      0.1727
    115  C         -8.1400   92.1920  114.2290 C.2   339  VAL339      0.2616
    116  O         -9.2930   92.5480  114.0080 O.2   339  VAL339     -0.2715
    117  CB        -8.6420   92.4340  116.7430 C.3   339  VAL339      0.0290
    118  CG1       -9.6190   91.2750  116.7950 C.3   339  VAL339      0.0023
    119  CG2       -7.9820   92.5830  118.1010 C.3   339  VAL339      0.0023
    120  N         -7.3240   91.7410  113.2780 N.am  340  PHE340     -0.1960
    121  CA        -7.6930   91.7050  111.8570 C.3   340  PHE340      0.1771
    122  C         -8.9760   90.9580  111.5290 C.2   340  PHE340      0.2619
    123  O         -9.5440   91.1210  110.4550 O.2   340  PHE340     -0.2715
    124  CB        -6.5450   91.1430  111.0240 C.3   340  PHE340      0.0574
    125  CG        -6.4670   89.6580  111.0310 C.ar  340  PHE340     -0.0200
    126  CD1       -5.8750   88.9900  112.0790 C.ar  340  PHE340     -0.0042
    127  CD2       -6.9440   88.9250  109.9550 C.ar  340  PHE340     -0.0042
    128  CE1       -5.7540   87.6120  112.0540 C.ar  340  PHE340     -0.0003
    129  CE2       -6.8270   87.5550  109.9210 C.ar  340  PHE340     -0.0003
    130  CZ        -6.2280   86.8930  110.9750 C.ar  340  PHE340     -0.0000
    131  N         -9.4080   90.1260  112.4570 N.am  341  GLU341     -0.1977
    132  CA       -10.6190   89.3740  112.2790 C.3   341  GLU341      0.1602
    133  C        -11.8140   90.2970  112.2000 C.2   341  GLU341      0.2287
    134  O        -12.8440   89.9350  111.6430 O.2   341  GLU341     -0.2864
    135  CB       -10.7860   88.3900  113.4140 C.3   341  GLU341      0.0415
    136  CG        -9.7200   87.3030  113.4280 C.3   341  GLU341      0.1163
    137  CD        -8.5640   87.6100  114.3610 C.2   341  GLU341      0.3649
    138  OE1       -8.3860   88.7850  114.7550 O.co2 341  GLU341     -0.2457
    139  OE2       -7.8370   86.6580  114.7100 O.co2 341  GLU341     -0.2457
    140  N          3.4230   82.4500  111.0970 N.3   371  GLY371     -0.1210
    141  CA         2.2960   82.5510  112.0080 C.3   371  GLY371      0.1956
    142  C          0.9670   82.1960  111.3540 C.2   371  GLY371      0.2612
    143  O          0.6100   82.7340  110.3180 O.2   371  GLY371     -0.2717
    144  N          0.2130   81.3090  111.9900 N.am  372  GLY372     -0.1942
    145  CA        -1.0610   80.8800  111.4540 C.3   372  GLY372      0.2014
    146  C         -2.0260   81.9870  111.1160 C.2   372  GLY372      0.2639
    147  O         -2.5840   82.0240  110.0180 O.2   372  GLY372     -0.2714
    148  N         -2.2190   82.9070  112.0490 N.am  373  ASP373     -0.1957
    149  CA        -3.1340   84.0070  111.8230 C.3   373  ASP373      0.1840
    150  C         -2.5780   84.9900  110.8020 C.2   373  ASP373      0.2622
    151  O         -3.3250   85.5560  110.0060 O.2   373  ASP373     -0.2715
    152  CB        -3.4520   84.6960  113.1510 C.3   373  ASP373      0.1450
    153  CG        -4.0960   83.7500  114.1560 C.2   373  ASP373      0.3671
    154  OD1       -5.2180   83.2800  113.8900 O.co2 373  ASP373     -0.2456
    155  OD2       -3.4790   83.4510  115.2000 O.co2 373  ASP373     -0.2456
    156  N         -1.2590   85.1460  110.8000 N.am  374  SER374     -0.1950
    157  CA        -0.5820   86.0520  109.8770 C.3   374  SER374      0.1924
    158  C         -0.7340   85.5240  108.4650 C.2   374  SER374      0.2314
    159  O         -1.0190   86.2670  107.5240 O.2   374  SER374     -0.2863
    160  CB         0.9030   86.1870  110.2440 C.3   374  SER374      0.2116
    161  OG         1.0680   86.8790  111.4680 O.3   374  SER374     -0.2180
    162  N          5.4620   79.9250  113.3090 N.3   394  GLY394     -0.1210
    163  CA         5.0930   81.1990  113.9230 C.3   394  GLY394      0.1956
    164  C          6.3480   81.6210  114.6790 C.2   394  GLY394      0.2612
    165  O          7.3630   81.9540  114.0470 O.2   394  GLY394     -0.2717
    166  N          6.3230   81.5500  116.0140 N.am  395  GLY395     -0.1956
    167  CA         7.5190   81.8620  116.8050 C.3   395  GLY395      0.1869
    168  C          8.6540   80.8120  116.6730 C.2   395  GLY395      0.2309
    169  O          9.3810   80.5140  117.6320 O.2   395  GLY395     -0.2863
@<TRIPOS>BOND
     1   159   158    2
     2   158   157    1
     3   157   160    1
     4   157   156    1
     5   129   127   ar
     6   129   130   ar
     7   127   125   ar
     8   151   150    2
     9   147   146    2
    10   160   161    1
    11   143   142    2
    12   123   122    2
    13   156   150   am
    14   150   149    1
    15   130   128   ar
    16   124   125    1
    17   124   121    1
    18   125   126   ar
    19   140   141    1
    20   146   145    1
    21   146   148   am
    22   142   144   am
    23   142   141    1
    24   145   144    1
    25   122   121    1
    26   122   131   am
    27   134   133    2
    28   149   148    1
    29   149   152    1
    30    82    83    1
    31   121   120    1
    32   128   126   ar
    33   106   105    1
    34   106   107    1
    35   133   132    1
    36   132   131    1
    37   132   135    1
    38    83    86    1
    39    83    84    1
    40   105   102    1
    41    99    98    1
    42    99   100    1
    43    95    98    1
    44    95    94    1
    45    95    96    1
    46   107   108    1
    47   152   153    1
    48    93    92    2
    49   101    96   am
    50   101   102    1
    51   120   115   am
    52   162   163    1
    53    90    84   am
    54    90    91    1
    55   135   136    1
    56   136   137    1
    57    86    87    1
    58    84    85    2
    59    94    92   am
    60    94   100    1
    61    92    91    1
    62    89    87   am
    63    96    97    2
    64   154   153   ar
    65   102   103    1
    66   163   164    1
    67   116   115    2
    68   165   164    2
    69   153   155   ar
    70   115   114    1
    71   137   139   ar
    72   137   138   ar
    73    87    88    2
    74   109   103   am
    75   109   110    1
    76   164   166   am
    77   112   111    2
    78   103   104    2
    79   111   110    1
    80   111   113   am
    81   114   113    1
    82   114   117    1
    83   166   167    1
    84   168   167    1
    85   168   169    2
    86   117   118    1
    87   117   119    1
    88    77    76    2
    89     1     2    1
    90    28    29    1
    91     2     3    1
    92    76    75    1
    93    27    26    1
    94    29    30    1
    95    26    25    1
    96    78    75    1
    97    78    79    1
    98    75    74    1
    99    25    24    1
   100     3     5   am
   101     3     4    2
   102    30    31    2
   103    30    32   am
   104     5     6    1
   105    17    16    1
   106    17    18    1
   107    74    71   am
   108    24    23    1
   109    80    79    1
   110    79    81    1
   111    66    68   ar
   112    66    64   ar
   113    16    15    1
   114    32    33    1
   115    48    47    1
   116    68    67   ar
   117    71    72    2
   118    71    70    1
   119    64    63   ar
   120     6     9    1
   121     6     7    1
   122     8     7    2
   123    61    60    2
   124    60    59    1
   125    23    20    1
   126    67    65   ar
   127    73    70    1
   128    70    69    1
   129    15    14    1
   130     7    10   am
   131    47    46   ar
   132    47    45   ar
   133    33    34    1
   134    33    36    1
   135    22    21    2
   136    63    65   ar
   137    63    62    1
   138    20    21    1
   139    20    19    1
   140    14    11    1
   141    59    62    1
   142    59    58    1
   143    46    44   ar
   144    45    43   ar
   145    34    35    2
   146    10    11    1
   147    11    12    1
   148    44    42   ar
   149    43    42   ar
   150    13    12    2
   151    37    38    1
   152    42    41    1
   153    38    41    1
   154    38    39    1
   155    53    54    1
   156    53    50    1
   157    54    55    1
   158    55    56    1
   159    39    40    2
   160    49    50    1
   161    52    51    2
   162    50    51    1
   163    56    57    1
