@<TRIPOS>MOLECULE
tmp/13pkB01.pdb
 121 112 0 0 0
SMALL
GASTEIGER

@<TRIPOS>ATOM
      1  N          2.3310   44.0620   48.3630 N.3    20  ASP20      -0.1239
      2  CA         1.0200   43.8260   47.7870 C.3    20  ASP20       0.1674
      3  C          0.0880   43.5570   48.9390 C.2    20  ASP20       0.2266
      4  O          0.0470   42.4380   49.4330 O.2    20  ASP20      -0.2867
      5  CB         1.0220   42.6030   46.8880 C.3    20  ASP20       0.1410
      6  CG        -0.2470   42.4860   46.0760 C.2    20  ASP20       0.3668
      7  OD1       -1.1340   43.3630   46.2020 O.co2  20  ASP20      -0.2456
      8  OD2       -0.3420   41.5260   45.2810 O.co2  20  ASP20      -0.2456
      9  N         -3.1530   44.1940   48.7250 N.3    22  ASN22      -0.1240
     10  CA        -4.4850   44.2200   48.1460 C.3    22  ASN22       0.1653
     11  C         -5.2500   42.9640   48.5990 C.2    22  ASN22       0.2266
     12  O         -5.5330   42.0550   47.8220 O.2    22  ASN22      -0.2867
     13  CB        -4.3980   44.2560   46.6360 C.3    22  ASN22       0.1155
     14  CG        -5.7240   44.4510   46.0090 C.2    22  ASN22       0.2627
     15  OD1       -6.6170   44.9930   46.6290 O.2    22  ASN22      -0.2716
     16  ND2       -5.8790   44.0050   44.7780 N.am   22  ASN22      -0.0877
     17  N         -1.9190   37.8400   51.6020 N.3    35  ARG35      -0.1245
     18  CA        -0.9830   38.7410   50.9720 C.3    35  ARG35       0.1563
     19  C         -0.1340   39.4770   51.9730 C.2    35  ARG35       0.2260
     20  O          1.0280   39.7360   51.7060 O.2    35  ARG35      -0.2867
     21  CB        -1.6820   39.6870   50.0050 C.3    35  ARG35       0.0307
     22  CG        -1.9660   39.0240   48.6640 C.3    35  ARG35       0.0489
     23  CD        -2.6650   39.9370   47.7100 C.3    35  ARG35       0.2205
     24  NE        -2.6950   39.3230   46.3900 N.pl3  35  ARG35      -0.0865
     25  CZ        -3.6190   39.5530   45.4600 C.cat  35  ARG35       0.5346
     26  NH1       -4.6120   40.3930   45.7170 N.pl3  35  ARG35       0.1354
     27  NH2       -3.5480   38.9500   44.2700 N.pl3  35  ARG35       0.1354
     28  N         -1.5200   49.3200   47.3400 N.3    58  HIS58      -0.1241
     29  CA        -2.8150   49.7570   46.8630 C.3    58  HIS58       0.1621
     30  C         -3.8200   48.7160   47.3190 C.2    58  HIS58       0.2264
     31  O         -3.4450   47.5990   47.6350 O.2    58  HIS58      -0.2867
     32  CB        -2.8170   49.8670   45.3240 C.3    58  HIS58       0.0745
     33  CG        -2.8050   48.5500   44.6050 C.ar   58  HIS58       0.0817
     34  ND1       -1.6430   47.8800   44.2950 N.ar   58  HIS58      -0.2268
     35  CD2       -3.8170   47.7680   44.1560 C.ar   58  HIS58       0.1154
     36  CE1       -1.9380   46.7410   43.6920 C.ar   58  HIS58       0.1986
     37  NE2       -3.2490   46.6490   43.5980 N.ar   58  HIS58      -0.2212
     38  N         -7.7070   47.4040   46.1030 N.3    60  GLY60      -0.1210
     39  CA        -8.7710   47.5010   45.1170 C.3    60  GLY60       0.1956
     40  C         -8.4040   48.2780   43.8760 C.2    60  GLY60       0.2611
     41  O         -7.2740   48.2110   43.3900 O.2    60  GLY60      -0.2717
     42  N         -9.3840   48.9800   43.3320 N.am   61  ARG61      -0.1979
     43  CA        -9.1910   49.8000   42.1400 C.3    61  ARG61       0.1597
     44  C         -9.9530   51.1060   42.3540 C.2    61  ARG61       0.2287
     45  O        -11.0470   51.2990   41.8120 O.2    61  ARG61      -0.2864
     46  CB        -9.7100   49.0770   40.9020 C.3    61  ARG61       0.0334
     47  CG        -8.8420   47.9040   40.4760 C.3    61  ARG61       0.0492
     48  CD        -9.3520   47.2830   39.2010 C.3    61  ARG61       0.2205
     49  NE        -8.3890   46.3540   38.6240 N.pl3  61  ARG61      -0.0865
     50  CZ        -8.6180   45.6320   37.5290 C.cat  61  ARG61       0.5346
     51  NH1       -9.7790   45.7490   36.9070 N.pl3  61  ARG61       0.1354
     52  NH2       -7.7030   44.7750   37.0750 N.pl3  61  ARG61       0.1354
     53  N         -3.0720   54.2460   45.0800 N.3   131  ARG131     -0.1245
     54  CA        -3.9520   54.4050   43.9520 C.3   131  ARG131      0.1563
     55  C         -5.0190   55.4570   44.1800 C.2   131  ARG131      0.2260
     56  O         -5.9260   55.6240   43.3750 O.2   131  ARG131     -0.2867
     57  CB        -4.5560   53.0780   43.5600 C.3   131  ARG131      0.0307
     58  CG        -3.6060   52.2110   42.7640 C.3   131  ARG131      0.0489
     59  CD        -4.3660   51.0460   42.1960 C.3   131  ARG131      0.2205
     60  NE        -3.4880   50.1400   41.4660 N.pl3 131  ARG131     -0.0865
     61  CZ        -3.8640   48.9470   41.0140 C.cat 131  ARG131      0.5346
     62  NH1       -5.1190   48.5080   41.2090 N.pl3 131  ARG131      0.1354
     63  NH2       -2.9710   48.1880   40.3890 N.pl3 131  ARG131      0.1354
     64  N          2.9830   40.9080   41.4180 N.3   164  GLY164     -0.1210
     65  CA         1.5330   40.9120   41.4650 C.3   164  GLY164      0.1956
     66  C          1.1380   42.2690   40.9390 C.2   164  GLY164      0.2612
     67  O         -0.0130   42.5210   40.5860 O.2   164  GLY164     -0.2717
     68  N          2.1180   43.1610   40.9350 N.am  165  THR165     -0.1952
     69  CA         1.9680   44.4940   40.4040 C.3   165  THR165      0.1897
     70  C          3.2490   44.7320   39.6310 C.2   165  THR165      0.2313
     71  O          3.4710   45.8160   39.1260 O.2   165  THR165     -0.2863
     72  CB         1.8570   45.5240   41.5130 C.3   165  THR165      0.1794
     73  OG1        0.9490   45.0420   42.5140 O.3   165  THR165     -0.2208
     74  CG2        1.3370   46.8120   40.9630 C.3   165  THR165      0.0378
     75  N          3.9510   43.7000   36.8670 N.3   167  HIS167     -0.1226
     76  CA         3.5730   43.9230   35.4680 C.3   167  HIS167      0.1752
     77  C          3.1560   45.4000   35.3000 C.2   167  HIS167      0.2595
     78  O          3.1680   45.9590   34.1940 O.2   167  HIS167     -0.2718
     79  CB         2.4090   42.9980   35.0830 C.3   167  HIS167      0.0759
     80  CG         1.2020   43.1600   35.9480 C.ar  167  HIS167      0.0818
     81  ND1       -0.0750   43.1510   35.4450 N.ar  167  HIS167     -0.2268
     82  CD2        1.0800   43.3220   37.2840 C.ar  167  HIS167      0.1154
     83  CE1       -0.9410   43.2980   36.4340 C.ar  167  HIS167      0.1986
     84  NE2       -0.2630   43.4050   37.5600 N.ar  167  HIS167     -0.2212
     85  N          2.8080   46.0340   36.4160 N.am  168  ARG168     -0.1980
     86  CA         2.3810   47.4260   36.3930 C.3   168  ARG168      0.1597
     87  C          3.5840   48.3590   36.4330 C.2   168  ARG168      0.2287
     88  O          4.1970   48.5480   37.4970 O.2   168  ARG168     -0.2864
     89  CB         1.4860   47.7370   37.6000 C.3   168  ARG168      0.0334
     90  CG         0.2440   46.8540   37.7460 C.3   168  ARG168      0.0492
     91  CD        -0.7130   47.0090   36.5680 C.3   168  ARG168      0.2205
     92  NE        -2.0200   46.4090   36.8440 N.pl3 168  ARG168     -0.0865
     93  CZ        -2.7800   45.7930   35.9380 C.cat 168  ARG168      0.5346
     94  NH1       -2.3700   45.6840   34.6770 N.pl3 168  ARG168      0.1354
     95  NH2       -3.9510   45.2750   36.2930 N.pl3 168  ARG168      0.1354
     96  N        -13.6510   41.5230   36.9500 N.3   215  LYS215     -0.1245
     97  CA       -12.6190   42.3410   36.2670 C.3   215  LYS215      0.1561
     98  C        -12.5340   41.9010   34.8080 C.2   215  LYS215      0.2260
     99  O        -11.4720   41.9790   34.1730 O.2   215  LYS215     -0.2867
    100  CB       -11.2220   42.1530   36.8790 C.3   215  LYS215      0.0271
    101  CG       -11.0400   42.5340   38.3290 C.3   215  LYS215      0.0035
    102  CD        -9.7770   41.8280   38.8420 C.3   215  LYS215      0.0206
    103  CE        -9.4120   42.2080   40.2570 C.3   215  LYS215      0.1093
    104  NZ        -8.7330   43.5370   40.3150 N.3   215  LYS215     -0.1314
    105  N         -6.4140   37.3200   45.0400 N.3   372  GLY372     -0.1225
    106  CA        -6.8490   37.4510   46.4220 C.3   372  GLY372      0.1811
    107  C         -7.9860   36.5290   46.7970 C.2   372  GLY372      0.2280
    108  O         -7.8740   35.7280   47.7150 O.2   372  GLY372     -0.2866
    109  N         -2.7170   38.1660   40.9640 N.3   394  GLY394     -0.1210
    110  CA        -4.0090   37.8120   40.3830 C.3   394  GLY394      0.1956
    111  C         -3.8240   37.6950   38.8740 C.2   394  GLY394      0.2612
    112  O         -3.1020   36.8070   38.4190 O.2   394  GLY394     -0.2717
    113  N         -4.4220   38.6150   38.1090 N.am  395  GLY395     -0.1942
    114  CA        -4.2650   38.6360   36.6600 C.3   395  GLY395      0.2014
    115  C         -2.7930   38.7650   36.2360 C.2   395  GLY395      0.2638
    116  O         -2.4480   38.5660   35.0670 O.2   395  GLY395     -0.2714
    117  N         -1.9250   39.1070   37.1880 N.am  396  ALA396     -0.1977
    118  CA        -0.4970   39.2300   36.9630 C.3   396  ALA396      0.1597
    119  C         -0.0390   37.9530   36.3210 C.2   396  ALA396      0.2287
    120  O          0.2440   37.9410   35.1250 O.2   396  ALA396     -0.2864
    121  CB         0.2190   39.4040   38.2740 C.3   396  ALA396      0.0319
@<TRIPOS>BOND
     1    99    98    2
     2    78    77    2
     3    94    93    1
     4    98    97    1
     5   116   115    2
     6    79    76    1
     7    79    80    1
     8   120   119    2
     9    77    76    1
    10    77    85   am
    11    81    80   ar
    12    81    83   ar
    13    76    75    1
    14    93    95    1
    15    93    92    2
    16    80    82   ar
    17   115   114    1
    18   115   117   am
    19    97   100    1
    20    97    96    1
    21   119   118    1
    22    86    85    1
    23    86    87    1
    24    86    89    1
    25    87    88    2
    26    83    84   ar
    27    91    92    1
    28    91    90    1
    29   114   113    1
    30   100   101    1
    31    51    50    1
    32   118   117    1
    33   118   121    1
    34    52    50    1
    35    82    84   ar
    36    50    49    2
    37    89    90    1
    38   113   111   am
    39   101   102    1
    40   112   111    2
    41    49    48    1
    42   102   103    1
    43   111   110    1
    44    71    70    2
    45    48    47    1
    46    70    69    1
    47   103   104    1
    48   110   109    1
    49    63    61    1
    50    69    68    1
    51    69    72    1
    52    47    46    1
    53    67    66    2
    54    46    43    1
    55    68    66   am
    56    66    65    1
    57    74    72    1
    58    61    62    1
    59    61    60    2
    60    64    65    1
    61    60    59    1
    62    72    73    1
    63    45    44    2
    64    43    44    1
    65    43    42    1
    66    59    58    1
    67    58    57    1
    68    42    40   am
    69    56    55    2
    70    41    40    2
    71    57    54    1
    72    37    36   ar
    73    37    35   ar
    74    36    34   ar
    75    40    39    1
    76    54    55    1
    77    54    53    1
    78    35    33   ar
    79    27    25    1
    80    34    33   ar
    81    33    32    1
    82    16    14   am
    83   105   106    1
    84    39    38    1
    85     8     6   ar
    86    32    29    1
    87    25    26    1
    88    25    24    2
    89    14    15    2
    90    14    13    1
    91     6     7   ar
    92     6     5    1
    93    24    23    1
    94   106   107    1
    95    13    10    1
    96   107   108    2
    97    29    30    1
    98    29    28    1
    99     5     2    1
   100    30    31    2
   101    23    22    1
   102     2     1    1
   103     2     3    1
   104    12    11    2
   105    10    11    1
   106    10     9    1
   107    22    21    1
   108     3     4    2
   109    21    18    1
   110    18    17    1
   111    18    19    1
   112    20    19    2
