@<TRIPOS>MOLECULE
tmp/148lA01.pdb
 159 152 0 0 0
SMALL
GASTEIGER

@<TRIPOS>ATOM
      1  N         10.7510   42.8500   42.2640 N.3    11  GLU11      -0.1245
      2  CA        10.3370   44.0660   42.9700 C.3    11  GLU11       0.1567
      3  C         10.3600   44.1340   44.5020 C.2    11  GLU11       0.2260
      4  O         10.3840   45.2100   45.0810 O.2    11  GLU11      -0.2867
      5  CB         8.9220   44.4990   42.5310 C.3    11  GLU11       0.0388
      6  CG         8.6810   44.5780   41.0160 C.3    11  GLU11       0.1160
      7  CD         9.3990   45.7040   40.3430 C.2    11  GLU11       0.3649
      8  OE1        9.9510   46.5700   41.1730 O.co2  11  GLU11      -0.2457
      9  OE2        9.4640   45.7680   39.1500 O.co2  11  GLU11      -0.2457
     10  N         12.1740   54.6030   44.0870 N.3    20  ASP20      -0.1225
     11  CA        12.9420   53.6360   43.3190 C.3    20  ASP20       0.1805
     12  C         14.3520   54.1440   43.0850 C.2    20  ASP20       0.2598
     13  O         14.7160   55.1770   43.6210 O.2    20  ASP20      -0.2718
     14  CB        12.2800   53.2240   42.0100 C.3    20  ASP20       0.1424
     15  CG        11.9280   54.3660   41.0980 C.2    20  ASP20       0.3668
     16  OD1       12.7430   55.3820   41.2020 O.co2  20  ASP20      -0.2456
     17  OD2       11.0620   54.2550   40.2770 O.co2  20  ASP20      -0.2456
     18  N         15.1620   53.4410   42.2930 N.am   21  THR21      -0.1939
     19  CA        16.5130   53.9270   42.0810 C.3    21  THR21       0.2028
     20  C         16.5680   55.1860   41.2500 C.2    21  THR21       0.2642
     21  O         17.6400   55.7670   41.2030 O.2    21  THR21      -0.2714
     22  CB        17.5450   52.8710   41.6090 C.3    21  THR21       0.1808
     23  OG1       16.9160   52.2030   40.5450 O.3    21  THR21      -0.2208
     24  CG2       17.7920   51.8350   42.7320 C.3    21  THR21       0.0379
     25  N         15.4420   55.6170   40.6450 N.am   22  GLU22      -0.1976
     26  CA        15.3650   56.8220   39.7850 C.3    22  GLU22       0.1602
     27  C         14.7570   57.9990   40.5330 C.2    22  GLU22       0.2287
     28  O         14.6190   59.0860   40.0020 O.2    22  GLU22      -0.2864
     29  CB        14.5160   56.5470   38.5190 C.3    22  GLU22       0.0415
     30  CG        15.2340   55.5770   37.5460 C.3    22  GLU22       0.1163
     31  CD        16.3640   56.2970   36.8570 C.2    22  GLU22       0.3649
     32  OE1       16.2140   57.3510   36.2940 O.co2  22  GLU22      -0.2457
     33  OE2       17.5390   55.7430   36.9570 O.co2  22  GLU22      -0.2457
     34  N         11.6230   57.8300   41.7790 N.3    24  TYR24      -0.1241
     35  CA        10.1730   57.8480   41.6480 C.3    24  TYR24       0.1605
     36  C          9.5580   57.1060   42.7790 C.2    24  TYR24       0.2264
     37  O         10.2200   56.2650   43.3780 O.2    24  TYR24      -0.2867
     38  CB         9.6510   57.2410   40.3480 C.3    24  TYR24       0.0534
     39  CG        10.3650   57.8570   39.1860 C.ar   24  TYR24      -0.0201
     40  CD1       10.5800   59.2380   39.1220 C.ar   24  TYR24      -0.0009
     41  CD2       10.8780   57.0640   38.1600 C.ar   24  TYR24      -0.0009
     42  CE1       11.2770   59.8390   38.0720 C.ar   24  TYR24       0.0417
     43  CE2       11.5240   57.6520   37.0760 C.ar   24  TYR24       0.0417
     44  CZ        11.7200   59.0340   37.0210 C.ar   24  TYR24       0.1957
     45  OH        12.3810   59.6140   35.9470 O.3    24  TYR24      -0.2866
     46  N          7.0610   54.5310   44.4420 N.3    26  GLU26      -0.1245
     47  CA         6.3250   53.3160   44.2160 C.3    26  GLU26       0.1567
     48  C          5.7800   52.7400   45.5470 C.2    26  GLU26       0.2260
     49  O          6.0980   53.2100   46.6200 O.2    26  GLU26      -0.2867
     50  CB         7.2660   52.3000   43.5100 C.3    26  GLU26       0.0388
     51  CG         8.0210   52.7620   42.2290 C.3    26  GLU26       0.1160
     52  CD         8.7720   51.5860   41.6240 C.2    26  GLU26       0.3649
     53  OE1        9.0250   50.6430   42.4870 O.co2  26  GLU26      -0.2457
     54  OE2        9.0680   51.4620   40.4560 O.co2  26  GLU26      -0.2457
     55  N          6.2200   46.9880   43.2960 N.3    30  GLY30      -0.1210
     56  CA         6.5280   47.7710   42.0960 C.3    30  GLY30       0.1956
     57  C          5.3440   48.5630   41.5710 C.2    30  GLY30       0.2612
     58  O          5.2820   48.8380   40.3680 O.2    30  GLY30      -0.2717
     59  N          4.3730   48.9670   42.4050 N.am   31  HIS31      -0.1961
     60  CA         3.2840   49.7170   41.7950 C.3    31  HIS31       0.1787
     61  C          3.6930   51.1700   41.7200 C.2    31  HIS31       0.2620
     62  O          3.8860   51.7710   42.7890 O.2    31  HIS31      -0.2715
     63  CB         1.9870   49.6570   42.6110 C.3    31  HIS31       0.0785
     64  CG         0.8940   50.5070   42.0430 C.ar   31  HIS31       0.0821
     65  ND1        0.1090   50.0390   40.9840 N.ar   31  HIS31      -0.2267
     66  CD2        0.4650   51.7540   42.3660 C.ar   31  HIS31       0.1154
     67  CE1       -0.7840   50.9860   40.6880 C.ar   31  HIS31       0.1986
     68  NE2       -0.5850   52.0490   41.4790 N.ar   31  HIS31      -0.2212
     69  N          3.8250   51.7110   40.5050 N.am   32  LEU32      -0.1977
     70  CA         4.2110   53.1130   40.2850 C.3    32  LEU32       0.1596
     71  C          3.1140   54.0790   40.7010 C.2    32  LEU32       0.2287
     72  O          1.9880   53.9530   40.2480 O.2    32  LEU32      -0.2864
     73  CB         4.5750   53.4440   38.8000 C.3    32  LEU32       0.0297
     74  CG         5.0620   54.8830   38.5210 C.3    32  LEU32       0.0022
     75  CD1        6.2680   55.2260   39.3680 C.3    32  LEU32       0.0001
     76  CD2        5.4240   55.0000   37.0250 C.3    32  LEU32       0.0001
     77  N          5.7730   60.1540   39.1390 N.3    35  LYS35      -0.1245
     78  CA         7.1780   60.4410   38.8560 C.3    35  LYS35       0.1561
     79  C          7.5090   61.8580   39.3980 C.2    35  LYS35       0.2260
     80  O          8.6350   62.3210   39.4860 O.2    35  LYS35      -0.2867
     81  CB         7.5060   60.2450   37.3610 C.3    35  LYS35       0.0271
     82  CG         7.4260   58.8160   36.8270 C.3    35  LYS35       0.0035
     83  CD         8.5260   58.4540   35.8230 C.3    35  LYS35       0.0206
     84  CE         8.0330   58.2420   34.4040 C.3    35  LYS35       0.1093
     85  NZ         9.1130   58.1910   33.3970 N.3    35  LYS35      -0.1314
     86  N         -1.9180   44.8970   38.1490 N.3    70  ASP70      -0.1239
     87  CA        -0.7630   45.3370   37.3800 C.3    70  ASP70       0.1674
     88  C         -0.2370   44.2840   36.4220 C.2    70  ASP70       0.2266
     89  O          0.1510   44.5920   35.2830 O.2    70  ASP70      -0.2867
     90  CB         0.3740   45.8790   38.2390 C.3    70  ASP70       0.1410
     91  CG        -0.0680   47.1420   38.9080 C.2    70  ASP70       0.3668
     92  OD1       -0.8860   47.8620   38.4150 O.co2  70  ASP70      -0.2456
     93  OD2        0.6480   47.4710   39.9580 O.co2  70  ASP70      -0.2456
     94  N          7.6520   44.6040   30.2340 N.3   103  VAL103     -0.1231
     95  CA         6.4630   45.4480   30.1090 C.3   103  VAL103      0.1692
     96  C          5.9540   46.0170   31.4040 C.2   103  VAL103      0.2592
     97  O          5.5010   47.1500   31.3940 O.2   103  VAL103     -0.2718
     98  CB         5.3150   44.8690   29.3180 C.3   103  VAL103      0.0266
     99  CG1        4.0490   45.7410   29.3150 C.3   103  VAL103      0.0020
    100  CG2        5.7570   44.4390   27.9230 C.3   103  VAL103      0.0020
    101  N          5.9510   45.2360   32.5020 N.am  104  PHE104     -0.1962
    102  CA         5.4990   45.7190   33.8020 C.3   104  PHE104      0.1771
    103  C          6.4020   46.9010   34.2680 C.2   104  PHE104      0.2619
    104  O          5.9620   47.8520   34.9320 O.2   104  PHE104     -0.2715
    105  CB         5.6280   44.5110   34.7860 C.3   104  PHE104      0.0574
    106  CG         5.2170   44.6270   36.2650 C.ar  104  PHE104     -0.0200
    107  CD1        6.0740   45.0420   37.2870 C.ar  104  PHE104     -0.0042
    108  CD2        3.9200   44.2650   36.6420 C.ar  104  PHE104     -0.0042
    109  CE1        5.6370   45.1080   38.6260 C.ar  104  PHE104     -0.0003
    110  CE2        3.4790   44.3150   37.9600 C.ar  104  PHE104     -0.0003
    111  CZ         4.3290   44.7650   38.9590 C.ar  104  PHE104     -0.0000
    112  N          7.7030   46.8370   33.9460 N.am  105  GLN105     -0.1963
    113  CA         8.7030   47.7910   34.3420 C.3   105  GLN105      0.1733
    114  C          8.8020   49.0290   33.4780 C.2   105  GLN105      0.2616
    115  O          9.2500   50.0670   33.9540 O.2   105  GLN105     -0.2715
    116  CB        10.1300   47.2150   34.3980 C.3   105  GLN105      0.0408
    117  CG        11.0930   48.0130   35.3280 C.3   105  GLN105      0.0908
    118  CD        12.5410   47.5980   35.2510 C.2   105  GLN105      0.2608
    119  OE1       12.8990   46.5760   34.6510 O.2   105  GLN105     -0.2717
    120  NE2       13.3880   48.3670   35.9090 N.am  105  GLN105     -0.0878
    121  N          8.4460   48.8990   32.2040 N.am  106  MET106     -0.1963
    122  CA         8.5780   50.0210   31.2470 C.3   106  MET106      0.1736
    123  C          7.3480   50.4060   30.5040 C.2   106  MET106      0.2617
    124  O          7.3610   51.4180   29.8240 O.2   106  MET106     -0.2715
    125  CB         9.7090   49.7420   30.2130 C.3   106  MET106      0.0427
    126  CG        11.0820   49.6740   30.9150 C.3   106  MET106      0.0599
    127  SD        12.4280   49.2090   29.7820 S.3   106  MET106     -0.1393
    128  CE        12.2600   47.4240   30.0870 C.3   106  MET106      0.0692
    129  N          6.2920   49.6290   30.5820 N.am  107  GLY107     -0.1955
    130  CA         5.0700   49.9460   29.8070 C.3   107  GLY107      0.1869
    131  C          5.0940   49.3990   28.3790 C.2   107  GLY107      0.2309
    132  O          6.1660   49.1150   27.8270 O.2   107  GLY107     -0.2863
    133  N         20.1830   51.7420   33.7050 N.3   141  GLN141     -0.1231
    134  CA        19.4040   52.2030   34.8660 C.3   141  GLN141      0.1698
    135  C         19.3600   51.1770   35.9560 C.2   141  GLN141      0.2592
    136  O         19.6590   51.4580   37.1350 O.2   141  GLN141     -0.2718
    137  CB        17.9040   52.5440   34.5830 C.3   141  GLN141      0.0381
    138  CG        17.7060   53.7660   33.6280 C.3   141  GLN141      0.0905
    139  CD        16.3790   53.7740   32.8870 C.2   141  GLN141      0.2608
    140  OE1       15.8230   52.6420   32.5460 O.2   141  GLN141     -0.2717
    141  NE2       15.8440   54.8210   32.6080 N.am  141  GLN141     -0.0878
    142  N         18.9330   49.9800   35.5700 N.am  142  THR142     -0.1953
    143  CA        18.7690   48.8650   36.5070 C.3   142  THR142      0.1897
    144  C         19.4970   47.6020   36.0290 C.2   142  THR142      0.2313
    145  O         18.9010   46.5860   35.7120 O.2   142  THR142     -0.2863
    146  CB        17.2720   48.5790   36.8780 C.3   142  THR142      0.1794
    147  OG1       16.5780   47.9870   35.7690 O.3   142  THR142     -0.2208
    148  CG2       16.4540   49.7750   37.4440 C.3   142  THR142      0.0378
    149  N         18.7350   43.8880   37.5560 N.3   145  ARG145     -0.1245
    150  CA        17.4220   43.3950   37.1350 C.3   145  ARG145      0.1563
    151  C         17.4540   43.0730   35.6460 C.2   145  ARG145      0.2260
    152  O         17.0480   42.0060   35.1910 O.2   145  ARG145     -0.2867
    153  CB        16.3250   44.4330   37.4210 C.3   145  ARG145      0.0307
    154  CG        15.1020   44.4580   36.5070 C.3   145  ARG145      0.0489
    155  CD        13.9270   43.8640   37.2620 C.3   145  ARG145      0.2205
    156  NE        12.5160   43.8770   36.7990 N.pl3 145  ARG145     -0.0865
    157  CZ        11.5940   44.5900   37.4900 C.cat 145  ARG145      0.5346
    158  NH1       11.9350   45.3440   38.5340 N.pl3 145  ARG145      0.1354
    159  NH2       10.2900   44.5930   37.1860 N.pl3 145  ARG145      0.1354
@<TRIPOS>BOND
     1   132   131    2
     2   100    98    1
     3   131   130    1
     4    99    98    1
     5    98    95    1
     6   127   128    1
     7   127   126    1
     8   130   129    1
     9   124   123    2
    10    95    94    1
    11    95    96    1
    12   125   126    1
    13   125   122    1
    14   123   129   am
    15   123   122    1
    16   122   121    1
    17    97    96    2
    18    96   101   am
    19   121   114   am
    20   101   102    1
    21   140   139    2
    22   141   139   am
    23   139   138    1
    24    85    84    1
    25   114   115    2
    26   114   113    1
    27   138   137    1
    28   133   134    1
    29   102   103    1
    30   102   105    1
    31   112   103   am
    32   112   113    1
    33   103   104    2
    34   113   116    1
    35   116   117    1
    36    84    83    1
    37   137   134    1
    38   119   118    2
    39   105   106    1
    40   134   135    1
    41   152   151    2
    42   118   117    1
    43   118   120   am
    44    89    88    2
    45   142   135   am
    46   142   143    1
    47   151   150    1
    48   145   144    2
    49   147   146    1
    50    83    82    1
    51    45    44    1
    52   135   136    2
    53   144   143    1
    54   106   108   ar
    55   106   107   ar
    56    32    31   ar
    57    88    87    1
    58   143   146    1
    59   154   155    1
    60   154   153    1
    61   108   110   ar
    62   156   155    1
    63   156   157    2
    64    82    81    1
    65    31    33   ar
    66    31    30    1
    67   146   148    1
    68    44    43   ar
    69    44    42   ar
    70    76    74    1
    71    43    41   ar
    72   150   153    1
    73   150   149    1
    74   159   157    1
    75   107   109   ar
    76    81    78    1
    77    87    86    1
    78    87    90    1
    79   157   158    1
    80    30    29    1
    81   110   111   ar
    82    42    40   ar
    83    41    39   ar
    84    90    91    1
    85    92    91   ar
    86    29    26    1
    87    74    73    1
    88    74    75    1
    89   109   111   ar
    90    73    70    1
    91    78    77    1
    92    78    79    1
    93    91    93   ar
    94    40    39   ar
    95     9     7   ar
    96    39    38    1
    97    79    80    2
    98    26    27    1
    99    26    25    1
   100    28    27    2
   101    72    71    2
   102    17    15   ar
   103    70    69    1
   104    70    71    1
   105     7     6    1
   106     7     8   ar
   107    38    35    1
   108    58    57    2
   109    54    52   ar
   110    69    61   am
   111    23    22    1
   112    25    20   am
   113    67    65   ar
   114    67    68   ar
   115    65    64   ar
   116     6     5    1
   117    15    16   ar
   118    15    14    1
   119    21    20    2
   120    20    19    1
   121    68    66   ar
   122    57    56    1
   123    57    59   am
   124    22    19    1
   125    22    24    1
   126    52    51    1
   127    52    53   ar
   128    35    34    1
   129    35    36    1
   130    61    60    1
   131    61    62    2
   132    60    59    1
   133    60    63    1
   134    14    11    1
   135    64    66   ar
   136    64    63    1
   137    19    18    1
   138    56    55    1
   139    51    50    1
   140     1     2    1
   141    18    12   am
   142     5     2    1
   143    36    37    2
   144     2     3    1
   145    12    11    1
   146    12    13    2
   147    11    10    1
   148    50    47    1
   149    47    46    1
   150    47    48    1
   151     3     4    2
   152    48    49    2
