@<TRIPOS>MOLECULE
tmp/148lA00.pdb
 159 153 0 0 0
SMALL
GASTEIGER

@<TRIPOS>ATOM
      1  N         12.1740   54.6030   44.0870 N.3    20  ASP20      -0.1239
      2  CA        12.9420   53.6360   43.3190 C.3    20  ASP20       0.1674
      3  C         14.3520   54.1440   43.0850 C.2    20  ASP20       0.2266
      4  O         14.7160   55.1770   43.6210 O.2    20  ASP20      -0.2867
      5  CB        12.2800   53.2240   42.0100 C.3    20  ASP20       0.1410
      6  CG        11.9280   54.3660   41.0980 C.2    20  ASP20       0.3668
      7  OD1       12.7430   55.3820   41.2020 O.co2  20  ASP20      -0.2456
      8  OD2       11.0620   54.2550   40.2770 O.co2  20  ASP20      -0.2456
      9  N         15.4420   55.6170   40.6450 N.3    22  GLU22      -0.1245
     10  CA        15.3650   56.8220   39.7850 C.3    22  GLU22       0.1567
     11  C         14.7570   57.9990   40.5330 C.2    22  GLU22       0.2260
     12  O         14.6190   59.0860   40.0020 O.2    22  GLU22      -0.2867
     13  CB        14.5160   56.5470   38.5190 C.3    22  GLU22       0.0388
     14  CG        15.2340   55.5770   37.5460 C.3    22  GLU22       0.1160
     15  CD        16.3640   56.2970   36.8570 C.2    22  GLU22       0.3649
     16  OE1       16.2140   57.3510   36.2940 O.co2  22  GLU22      -0.2457
     17  OE2       17.5390   55.7430   36.9570 O.co2  22  GLU22      -0.2457
     18  N         11.6230   57.8300   41.7790 N.3    24  TYR24      -0.1241
     19  CA        10.1730   57.8480   41.6480 C.3    24  TYR24       0.1605
     20  C          9.5580   57.1060   42.7790 C.2    24  TYR24       0.2264
     21  O         10.2200   56.2650   43.3780 O.2    24  TYR24      -0.2867
     22  CB         9.6510   57.2410   40.3480 C.3    24  TYR24       0.0534
     23  CG        10.3650   57.8570   39.1860 C.ar   24  TYR24      -0.0201
     24  CD1       10.5800   59.2380   39.1220 C.ar   24  TYR24      -0.0009
     25  CD2       10.8780   57.0640   38.1600 C.ar   24  TYR24      -0.0009
     26  CE1       11.2770   59.8390   38.0720 C.ar   24  TYR24       0.0417
     27  CE2       11.5240   57.6520   37.0760 C.ar   24  TYR24       0.0417
     28  CZ        11.7200   59.0340   37.0210 C.ar   24  TYR24       0.1957
     29  OH        12.3810   59.6140   35.9470 O.3    24  TYR24      -0.2866
     30  N          5.7730   60.1540   39.1390 N.3    35  LYS35      -0.1245
     31  CA         7.1780   60.4410   38.8560 C.3    35  LYS35       0.1561
     32  C          7.5090   61.8580   39.3980 C.2    35  LYS35       0.2260
     33  O          8.6350   62.3210   39.4860 O.2    35  LYS35      -0.2867
     34  CB         7.5060   60.2450   37.3610 C.3    35  LYS35       0.0271
     35  CG         7.4260   58.8160   36.8270 C.3    35  LYS35       0.0035
     36  CD         8.5260   58.4540   35.8230 C.3    35  LYS35       0.0206
     37  CE         8.0330   58.2420   34.4040 C.3    35  LYS35       0.1093
     38  NZ         9.1130   58.1910   33.3970 N.3    35  LYS35      -0.1314
     39  N          7.7030   46.8370   33.9460 N.3   105  GLN105     -0.1231
     40  CA         8.7030   47.7910   34.3420 C.3   105  GLN105      0.1698
     41  C          8.8020   49.0290   33.4780 C.2   105  GLN105      0.2592
     42  O          9.2500   50.0670   33.9540 O.2   105  GLN105     -0.2718
     43  CB        10.1300   47.2150   34.3980 C.3   105  GLN105      0.0381
     44  CG        11.0930   48.0130   35.3280 C.3   105  GLN105      0.0905
     45  CD        12.5410   47.5980   35.2510 C.2   105  GLN105      0.2608
     46  OE1       12.8990   46.5760   34.6510 O.2   105  GLN105     -0.2717
     47  NE2       13.3880   48.3670   35.9090 N.am  105  GLN105     -0.0878
     48  N          8.4460   48.8990   32.2040 N.am  106  MET106     -0.1979
     49  CA         8.5780   50.0210   31.2470 C.3   106  MET106      0.1605
     50  C          7.3480   50.4060   30.5040 C.2   106  MET106      0.2287
     51  O          7.3610   51.4180   29.8240 O.2   106  MET106     -0.2864
     52  CB         9.7090   49.7420   30.2130 C.3   106  MET106      0.0413
     53  CG        11.0820   49.6740   30.9150 C.3   106  MET106      0.0598
     54  SD        12.4280   49.2090   29.7820 S.3   106  MET106     -0.1393
     55  CE        12.2600   47.4240   30.0870 C.3   106  MET106      0.0692
     56  N          6.9800   51.6060   26.0510 N.3   110  GLY110     -0.1225
     57  CA         8.4250   51.6020   26.2570 C.3   110  GLY110      0.1811
     58  C          9.0750   50.3350   25.7720 C.2   110  GLY110      0.2280
     59  O         10.1940   50.3390   25.3450 O.2   110  GLY110     -0.2866
     60  N          9.3610   50.0870   21.8940 N.3   113  GLY113     -0.1210
     61  CA        10.4670   50.8490   21.3880 C.3   113  GLY113      0.1956
     62  C         11.7340   50.0430   21.2500 C.2   113  GLY113      0.2612
     63  O         12.6290   50.5350   20.6360 O.2   113  GLY113     -0.2717
     64  N         11.8670   48.8300   21.7770 N.am  114  PHE114     -0.1962
     65  CA        13.1370   48.1170   21.6250 C.3   114  PHE114      0.1771
     66  C         13.1840   47.4190   20.2870 C.2   114  PHE114      0.2620
     67  O         13.3400   46.2070   20.1920 O.2   114  PHE114     -0.2715
     68  CB        13.3070   47.0430   22.7330 C.3   114  PHE114      0.0574
     69  CG        13.7440   47.5560   24.1010 C.ar  114  PHE114     -0.0200
     70  CD1       12.9480   48.3890   24.8830 C.ar  114  PHE114     -0.0042
     71  CD2       14.9730   47.1560   24.6490 C.ar  114  PHE114     -0.0042
     72  CE1       13.3820   48.8230   26.1240 C.ar  114  PHE114     -0.0003
     73  CE2       15.4140   47.5410   25.9170 C.ar  114  PHE114     -0.0003
     74  CZ        14.6110   48.4180   26.6530 C.ar  114  PHE114     -0.0000
     75  N         13.0210   48.1950   19.2550 N.am  115  THR115     -0.1937
     76  CA        12.9910   47.6860   17.9060 C.3   115  THR115      0.2028
     77  C         13.9790   46.6110   17.4990 C.2   115  THR115      0.2642
     78  O         13.6350   45.6640   16.8050 O.2   115  THR115     -0.2714
     79  CB        13.2360   48.9220   17.0440 C.3   115  THR115      0.1808
     80  OG1       12.0510   49.6810   17.0350 O.3   115  THR115     -0.2208
     81  CG2       13.5550   48.5230   15.6280 C.3   115  THR115      0.0379
     82  N         15.2580   46.7610   17.8140 N.am  116  ASN116     -0.1957
     83  CA        16.2070   45.7560   17.3530 C.3   116  ASN116      0.1819
     84  C         16.1830   44.4400   18.1000 C.2   116  ASN116      0.2622
     85  O         16.4140   43.3510   17.5380 O.2   116  ASN116     -0.2715
     86  CB        17.6170   46.3740   17.3590 C.3   116  ASN116      0.1195
     87  CG        17.7410   47.5660   16.4110 C.2   116  ASN116      0.2630
     88  OD1       17.2530   47.5120   15.2790 O.2   116  ASN116     -0.2716
     89  ND2       18.3800   48.6550   16.8600 N.am  116  ASN116     -0.0877
     90  N         15.9530   44.5980   19.3880 N.am  117  SER117     -0.1950
     91  CA        15.8980   43.5090   20.3460 C.3   117  SER117      0.1924
     92  C         14.6960   42.6250   20.0430 C.2   117  SER117      0.2314
     93  O         14.8450   41.4280   20.1130 O.2   117  SER117     -0.2863
     94  CB        15.8870   43.9850   21.7860 C.3   117  SER117      0.2116
     95  OG        17.0410   44.7510   22.1180 O.3   117  SER117     -0.2180
     96  N         21.6210   43.1380   22.1060 N.3   132  ASN132     -0.1240
     97  CA        20.8090   44.3140   21.7920 C.3   132  ASN132      0.1653
     98  C         20.0240   44.8130   23.0190 C.2   132  ASN132      0.2266
     99  O         19.7960   45.9830   23.2220 O.2   132  ASN132     -0.2867
    100  CB        19.9490   44.0670   20.5530 C.3   132  ASN132      0.1155
    101  CG        20.8650   44.0940   19.3220 C.2   132  ASN132      0.2627
    102  OD1       21.2210   45.1690   18.8500 O.2   132  ASN132     -0.2716
    103  ND2       21.3450   42.9280   18.8780 N.am  132  ASN132     -0.0877
    104  N         22.1010   47.1850   25.1570 N.3   135  LYS135     -0.1231
    105  CA        22.3790   48.5560   24.7380 C.3   135  LYS135      0.1693
    106  C         21.1280   49.4020   24.9400 C.2   135  LYS135      0.2593
    107  O         20.3910   49.7490   24.0150 O.2   135  LYS135     -0.2718
    108  CB        22.8250   48.4330   23.3010 C.3   135  LYS135      0.0285
    109  CG        24.0510   47.5390   23.3880 C.3   135  LYS135      0.0035
    110  CD        24.8840   47.5640   22.1170 C.3   135  LYS135      0.0206
    111  CE        24.1100   48.1960   20.9910 C.3   135  LYS135      0.1093
    112  NZ        24.2660   47.4490   19.7170 N.3   135  LYS135     -0.1314
    113  N         20.8520   49.6840   26.2030 N.am  136  SER136     -0.1938
    114  CA        19.6870   50.4160   26.4490 C.3   136  SER136      0.2055
    115  C         19.8450   51.2060   27.6910 C.2   136  SER136      0.2643
    116  O         20.7320   50.9680   28.5170 O.2   136  SER136     -0.2714
    117  CB        18.5120   49.4570   26.5860 C.3   136  SER136      0.2130
    118  OG        18.7230   48.5890   27.6790 O.3   136  SER136     -0.2179
    119  N         18.9380   52.1700   27.7800 N.am  137  ARG137     -0.1963
    120  CA        18.9340   53.0090   28.9410 C.3   137  ARG137      0.1729
    121  C         18.5320   52.1190   30.0930 C.2   137  ARG137      0.2616
    122  O         19.1120   52.2680   31.1400 O.2   137  ARG137     -0.2715
    123  CB        18.0310   54.2390   28.7640 C.3   137  ARG137      0.0348
    124  CG        17.9000   55.1330   29.9830 C.3   137  ARG137      0.0492
    125  CD        17.5340   56.5530   29.5580 C.3   137  ARG137      0.2205
    126  NE        16.1770   57.0430   29.7880 N.pl3 137  ARG137     -0.0865
    127  CZ        15.8960   58.0520   30.6340 C.cat 137  ARG137      0.5346
    128  NH1       16.8780   58.6030   31.3300 N.pl3 137  ARG137      0.1354
    129  NH2       14.6730   58.5250   30.8460 N.pl3 137  ARG137      0.1354
    130  N         17.5460   51.1980   29.8460 N.am  138  TRP138     -0.1974
    131  CA        17.0750   50.3010   30.8810 C.3   138  TRP138      0.1640
    132  C         18.2300   49.6240   31.6320 C.2   138  TRP138      0.2290
    133  O         18.3760   49.5950   32.8310 O.2   138  TRP138     -0.2864
    134  CB        16.2970   49.2250   30.1080 C.3   138  TRP138      0.0576
    135  CG        15.9040   47.9980   30.9280 C.ar  138  TRP138      0.0006
    136  CD1       15.3130   47.9440   32.1660 C.ar  138  TRP138      0.0946
    137  CD2       16.0010   46.6390   30.4670 C.ar  138  TRP138      0.0152
    138  NE1       15.0920   46.6410   32.5270 N.ar  138  TRP138     -0.2442
    139  CE2       15.4690   45.8080   31.4810 C.ar  138  TRP138      0.0810
    140  CE3       16.5300   46.0960   29.2950 C.ar  138  TRP138      0.0012
    141  CZ2       15.4420   44.4190   31.3210 C.ar  138  TRP138      0.0191
    142  CZ3       16.4830   44.7220   29.1490 C.ar  138  TRP138      0.0001
    143  CH2       15.9450   43.9090   30.1490 C.ar  138  TRP138      0.0015
    144  N         20.1830   51.7420   33.7050 N.3   141  GLN141     -0.1231
    145  CA        19.4040   52.2030   34.8660 C.3   141  GLN141      0.1698
    146  C         19.3600   51.1770   35.9560 C.2   141  GLN141      0.2592
    147  O         19.6590   51.4580   37.1350 O.2   141  GLN141     -0.2718
    148  CB        17.9040   52.5440   34.5830 C.3   141  GLN141      0.0381
    149  CG        17.7060   53.7660   33.6280 C.3   141  GLN141      0.0905
    150  CD        16.3790   53.7740   32.8870 C.2   141  GLN141      0.2608
    151  OE1       15.8230   52.6420   32.5460 O.2   141  GLN141     -0.2717
    152  NE2       15.8440   54.8210   32.6080 N.am  141  GLN141     -0.0878
    153  N         18.9330   49.9800   35.5700 N.am  142  THR142     -0.1953
    154  CA        18.7690   48.8650   36.5070 C.3   142  THR142      0.1897
    155  C         19.4970   47.6020   36.0290 C.2   142  THR142      0.2313
    156  O         18.9010   46.5860   35.7120 O.2   142  THR142     -0.2863
    157  CB        17.2720   48.5790   36.8780 C.3   142  THR142      0.1794
    158  OG1       16.5780   47.9870   35.7690 O.3   142  THR142     -0.2208
    159  CG2       16.4540   49.7750   37.4440 C.3   142  THR142      0.0378
@<TRIPOS>BOND
     1    88    87    2
     2    81    79    1
     3    87    89   am
     4    87    86    1
     5    78    77    2
     6    80    79    1
     7    79    76    1
     8    83    86    1
     9    83    82    1
    10    83    84    1
    11    77    82   am
    12    77    76    1
    13    85    84    2
    14    76    75    1
    15    84    90   am
    16   102   101    2
    17   103   101   am
    18    75    66   am
    19   101   100    1
    20    90    91    1
    21   112   111    1
    22    92    93    2
    23    92    91    1
    24    67    66    2
    25    66    65    1
    26    91    94    1
    27   100    97    1
    28    63    62    2
    29   111   110    1
    30    62    61    1
    31    62    64   am
    32    61    60    1
    33    65    64    1
    34    65    68    1
    35    94    95    1
    36    97    96    1
    37    97    98    1
    38   110   109    1
    39    68    69    1
    40    98    99    2
    41   108   109    1
    42   108   105    1
    43   107   106    2
    44    69    71   ar
    45    69    70   ar
    46    71    73   ar
    47   105   106    1
    48   105   104    1
    49    70    72   ar
    50   106   113   am
    51    59    58    2
    52    58    57    1
    53    73    74   ar
    54    56    57    1
    55    72    74   ar
    56   113   114    1
    57   114   117    1
    58   114   115    1
    59   117   118    1
    60   115   119   am
    61   115   116    2
    62   119   120    1
    63   123   120    1
    64   123   124    1
    65   120   121    1
    66   142   140   ar
    67   142   143   ar
    68   140   137   ar
    69   125   126    1
    70   125   124    1
    71    54    55    1
    72    54    53    1
    73   126   127    2
    74    51    50    2
    75   130   121   am
    76   130   131    1
    77   121   122    2
    78   134   131    1
    79   134   135    1
    80   143   141   ar
    81    52    53    1
    82    52    49    1
    83   137   135   ar
    84   137   139   ar
    85    50    49    1
    86   127   129    1
    87   127   128    1
    88   131   132    1
    89   135   136   ar
    90    49    48    1
    91   141   139   ar
    92   139   138   ar
    93   132   133    2
    94   136   138   ar
    95    48    41   am
    96   151   150    2
    97   152   150   am
    98   150   149    1
    99    38    37    1
   100    41    42    2
   101    41    40    1
   102   149   148    1
   103   144   145    1
   104    39    40    1
   105    40    43    1
   106    43    44    1
   107    37    36    1
   108   148   145    1
   109    46    45    2
   110   145   146    1
   111    45    44    1
   112    45    47   am
   113   153   146   am
   114   153   154    1
   115   156   155    2
   116   158   157    1
   117    36    35    1
   118    29    28    1
   119   146   147    2
   120   155   154    1
   121    16    15   ar
   122   154   157    1
   123    35    34    1
   124    15    17   ar
   125    15    14    1
   126   157   159    1
   127    28    27   ar
   128    28    26   ar
   129    27    25   ar
   130    34    31    1
   131    14    13    1
   132    26    24   ar
   133    25    23   ar
   134    13    10    1
   135    31    30    1
   136    31    32    1
   137    24    23   ar
   138    23    22    1
   139    32    33    2
   140    10    11    1
   141    10     9    1
   142    12    11    2
   143     8     6   ar
   144    22    19    1
   145     6     7   ar
   146     6     5    1
   147    19    18    1
   148    19    20    1
   149     5     2    1
   150    20    21    2
   151     3     2    1
   152     3     4    2
   153     2     1    1
