@<TRIPOS>MOLECULE
tmp/154lA00.pdb
 132 128 0 0 0
SMALL
GASTEIGER

@<TRIPOS>ATOM
      1  N          5.5670   25.4470   26.8670 N.3    73  GLU73      -0.1245
      2  CA         6.8850   25.1120   26.3090 C.3    73  GLU73       0.1567
      3  C          7.0660   23.6830   25.8350 C.2    73  GLU73       0.2260
      4  O          7.7040   23.4310   24.7730 O.2    73  GLU73      -0.2867
      5  CB         7.9650   25.4040   27.3260 C.3    73  GLU73       0.0388
      6  CG         8.2390   26.8940   27.4880 C.3    73  GLU73       0.1160
      7  CD         8.8340   27.5670   26.2950 C.2    73  GLU73       0.3649
      8  OE1        9.3360   27.0220   25.3230 O.co2  73  GLU73      -0.2457
      9  OE2        8.6760   28.8480   26.3500 O.co2  73  GLU73      -0.2457
     10  N         12.1380   24.3850   28.7590 N.3    95  GLN95      -0.1231
     11  CA        12.8510   24.7400   27.5400 C.3    95  GLN95       0.1698
     12  C         13.8420   25.8990   27.6330 C.2    95  GLN95       0.2592
     13  O         13.7070   26.8840   26.9430 O.2    95  GLN95      -0.2718
     14  CB        11.8760   24.9420   26.3960 C.3    95  GLN95       0.0381
     15  CG        11.1620   23.6560   25.9960 C.3    95  GLN95       0.0905
     16  CD        12.1060   22.7130   25.2980 C.2    95  GLN95       0.2608
     17  OE1       12.2210   22.8890   24.1010 O.2    95  GLN95      -0.2717
     18  NE2       12.6670   21.7330   25.9810 N.am   95  GLN95      -0.0878
     19  N         14.8220   25.7560   28.4750 N.am   96  VAL96      -0.1966
     20  CA        15.9440   26.6900   28.5750 C.3    96  VAL96       0.1727
     21  C         16.7190   26.5570   27.2510 C.2    96  VAL96       0.2616
     22  O         17.0500   25.4610   26.7640 O.2    96  VAL96      -0.2715
     23  CB        16.7950   26.2680   29.7270 C.3    96  VAL96       0.0290
     24  CG1       18.1100   27.0310   29.7790 C.3    96  VAL96       0.0023
     25  CG2       16.0110   26.5150   31.0170 C.3    96  VAL96       0.0023
     26  N         16.9790   27.6810   26.6010 N.am   97  ASP97      -0.1971
     27  CA        17.6800   27.6820   25.2970 C.3    97  ASP97       0.1709
     28  C         19.1890   27.6220   25.4800 C.2    97  ASP97       0.2293
     29  O         19.8060   28.5110   26.0710 O.2    97  ASP97      -0.2864
     30  CB        17.3190   28.9090   24.5000 C.3    97  ASP97       0.1436
     31  CG        17.8860   28.8780   23.1270 C.2    97  ASP97       0.3671
     32  OD1       18.8080   28.1910   22.7750 O.co2  97  ASP97      -0.2456
     33  OD2       17.1520   29.5650   22.3460 O.co2  97  ASP97      -0.2456
     34  N         21.4710   27.9940   23.5580 N.3    99  ARG99      -0.1231
     35  CA        22.2260   29.0540   22.9010 C.3    99  ARG99       0.1694
     36  C         22.4430   30.2300   23.7600 C.2    99  ARG99       0.2593
     37  O         23.4070   30.9620   23.5530 O.2    99  ARG99      -0.2718
     38  CB        21.6610   29.5290   21.5890 C.3    99  ARG99       0.0321
     39  CG        21.4730   28.3310   20.7230 C.3    99  ARG99       0.0489
     40  CD        20.6560   28.6360   19.5140 C.3    99  ARG99       0.2205
     41  NE        19.3110   28.9400   19.9070 N.pl3  99  ARG99      -0.0865
     42  CZ        18.3830   29.2140   19.0640 C.cat  99  ARG99       0.5346
     43  NH1       18.6190   29.1920   17.7630 N.pl3  99  ARG99       0.1354
     44  NH2       17.1790   29.5120   19.5840 N.pl3  99  ARG99       0.1354
     45  N         21.5600   30.4190   24.7440 N.am  100  SER100     -0.1938
     46  CA        21.6490   31.5640   25.6430 C.3   100  SER100      0.2055
     47  C         22.0700   31.2220   27.0270 C.2   100  SER100      0.2643
     48  O         22.5110   32.0890   27.7220 O.2   100  SER100     -0.2714
     49  CB        20.3100   32.2930   25.8320 C.3   100  SER100      0.2130
     50  OG        19.7160   32.6410   24.6280 O.3   100  SER100     -0.2179
     51  N         21.8350   29.9830   27.4800 N.am  101  HIS101     -0.1973
     52  CA        22.1710   29.5410   28.7940 C.3   101  HIS101      0.1656
     53  C         22.6430   28.1030   28.7480 C.2   101  HIS101      0.2291
     54  O         22.0400   27.2990   28.0680 O.2   101  HIS101     -0.2864
     55  CB        20.8780   29.5220   29.6610 C.3   101  HIS101      0.0771
     56  CG        20.1340   30.8150   29.6630 C.ar  101  HIS101      0.0820
     57  ND1       20.4880   31.8280   30.5140 N.ar  101  HIS101     -0.2267
     58  CD2       19.1070   31.2310   28.9120 C.ar  101  HIS101      0.1154
     59  CE1       19.6780   32.8310   30.2720 C.ar  101  HIS101      0.1986
     60  NE2       18.8360   32.5240   29.3110 N.ar  101  HIS101     -0.2212
     61  N         15.5040   32.1490   35.4480 N.3   119  ILE119     -0.1245
     62  CA        15.5900   32.9840   34.2940 C.3   119  ILE119      0.1561
     63  C         14.3380   33.8570   34.2540 C.2   119  ILE119      0.2260
     64  O         14.3900   35.0460   33.9250 O.2   119  ILE119     -0.2867
     65  CB        15.8850   32.1600   33.0290 C.3   119  ILE119      0.0252
     66  CG1       17.3040   31.5410   33.0200 C.3   119  ILE119      0.0019
     67  CG2       15.6470   32.9310   31.7470 C.3   119  ILE119      0.0019
     68  CD1       17.4920   30.3380   32.0870 C.3   119  ILE119      0.0001
     69  N         14.5300   36.7310   36.7100 N.3   122  ASN122     -0.1225
     70  CA        15.4250   37.7780   36.2400 C.3   122  ASN122      0.1785
     71  C         14.7730   38.6580   35.2280 C.2   122  ASN122      0.2597
     72  O         14.9850   39.8940   35.1810 O.2   122  ASN122     -0.2718
     73  CB        16.7650   37.2280   35.7150 C.3   122  ASN122      0.1169
     74  CG        17.6060   36.4960   36.7610 C.2   122  ASN122      0.2627
     75  OD1       18.3060   35.4870   36.4950 O.2   122  ASN122     -0.2716
     76  ND2       17.5380   36.9780   37.9850 N.am  122  ASN122     -0.0877
     77  N         13.9450   38.0970   34.3950 N.am  123  PHE123     -0.1976
     78  CA        13.2080   38.8740   33.4340 C.3   123  PHE123      0.1639
     79  C         12.1610   39.7610   34.1470 C.2   123  PHE123      0.2290
     80  O         11.9680   40.9530   33.8100 O.2   123  PHE123     -0.2864
     81  CB        12.5470   37.9900   32.4130 C.3   123  PHE123      0.0560
     82  CG        13.4740   37.5320   31.3060 C.ar  123  PHE123     -0.0200
     83  CD1       14.1880   38.4830   30.5910 C.ar  123  PHE123     -0.0042
     84  CD2       13.5860   36.1840   30.9630 C.ar  123  PHE123     -0.0042
     85  CE1       15.0100   38.0960   29.5360 C.ar  123  PHE123     -0.0003
     86  CE2       14.3940   35.7760   29.8980 C.ar  123  PHE123     -0.0003
     87  CZ        15.1200   36.7460   29.2130 C.ar  123  PHE123     -0.0000
     88  N         10.3590   36.2170   28.8030 N.3   147  TYR147     -0.1227
     89  CA        10.8970   34.8560   28.9050 C.3   147  TYR147      0.1736
     90  C         11.0720   34.2440   27.5170 C.2   147  TYR147      0.2595
     91  O         12.0040   33.4880   27.2100 O.2   147  TYR147     -0.2718
     92  CB         9.9760   33.9310   29.7220 C.3   147  TYR147      0.0548
     93  CG        10.5210   32.5520   29.9650 C.ar  147  TYR147     -0.0200
     94  CD1       11.3590   32.3280   31.0330 C.ar  147  TYR147     -0.0009
     95  CD2       10.1230   31.4830   29.1640 C.ar  147  TYR147     -0.0009
     96  CE1       11.8370   31.0410   31.2600 C.ar  147  TYR147      0.0417
     97  CE2       10.5840   30.2000   29.4130 C.ar  147  TYR147      0.0417
     98  CZ        11.4550   29.9920   30.4520 C.ar  147  TYR147      0.1957
     99  OH        11.9250   28.7180   30.6940 O.3   147  TYR147     -0.2866
    100  N         10.1380   34.5600   26.6710 N.am  148  ASN148     -0.1960
    101  CA        10.1400   34.0770   25.3130 C.3   148  ASN148      0.1819
    102  C         10.9450   34.9120   24.3350 C.2   148  ASN148      0.2621
    103  O         11.6880   34.3880   23.5000 O.2   148  ASN148     -0.2715
    104  CB         8.7290   34.0520   24.7400 C.3   148  ASN148      0.1195
    105  CG         8.6340   33.5950   23.3480 C.2   148  ASN148      0.2630
    106  OD1        8.3590   34.3970   22.4930 O.2   148  ASN148     -0.2716
    107  ND2        8.7870   32.2890   23.1080 N.am  148  ASN148     -0.0877
    108  N         10.7560   36.2430   24.3930 N.am  149  ALA149     -0.1963
    109  CA        11.3880   37.1370   23.4510 C.3   149  ALA149      0.1728
    110  C         12.4170   38.1030   23.9210 C.2   149  ALA149      0.2617
    111  O         12.8760   38.8740   23.0910 O.2   149  ALA149     -0.2715
    112  CB        10.3290   37.9680   22.8300 C.3   149  ALA149      0.0334
    113  N         12.7960   38.0780   25.1530 N.am  150  GLY150     -0.1940
    114  CA        13.7490   38.9920   25.7180 C.3   150  GLY150      0.2014
    115  C         13.0420   40.3030   26.1390 C.2   150  GLY150      0.2639
    116  O         11.9540   40.6560   25.6890 O.2   150  GLY150     -0.2714
    117  N         13.6570   41.0140   27.0520 N.am  151  ALA151     -0.1963
    118  CA        13.1490   42.2530   27.6020 C.3   151  ALA151      0.1728
    119  C         13.0830   43.3820   26.6590 C.2   151  ALA151      0.2616
    120  O         12.2560   44.2970   26.8080 O.2   151  ALA151     -0.2715
    121  CB        13.7890   42.6420   28.8930 C.3   151  ALA151      0.0334
    122  N         13.9200   43.3180   25.6370 N.am  152  GLY152     -0.1955
    123  CA        13.8810   44.3820   24.7030 C.3   152  GLY152      0.1869
    124  C         12.6070   44.4290   23.9420 C.2   152  GLY152      0.2309
    125  O         12.2280   45.4710   23.4130 O.2   152  GLY152     -0.2863
    126  N          6.4830   34.2900   20.2300 N.3   165  THR165     -0.1218
    127  CA         5.9600   33.1860   19.4450 C.3   165  THR165      0.1862
    128  C          4.4430   33.2370   19.4220 C.2   165  THR165      0.2287
    129  O          3.8000   33.2450   20.4470 O.2   165  THR165     -0.2866
    130  CB         6.4330   31.8370   20.0060 C.3   165  THR165      0.1770
    131  OG1        7.8460   31.8920   20.1300 O.3   165  THR165     -0.2211
    132  CG2        6.0460   30.7050   19.0830 C.3   165  THR165      0.0375
@<TRIPOS>BOND
     1    43    42    1
     2    42    44    1
     3    42    41    2
     4   132   130    1
     5   128   127    1
     6   128   129    2
     7   127   130    1
     8   127   126    1
     9    40    41    1
    10    40    39    1
    11   130   131    1
    12    39    38    1
    13    38    35    1
    14    33    31   ar
    15   106   105    2
    16    32    31   ar
    17   112   109    1
    18    35    34    1
    19    35    36    1
    20   111   110    2
    21   107   105   am
    22    31    30    1
    23   105   104    1
    24   125   124    2
    25   109   110    1
    26   109   108    1
    27   103   102    2
    28    37    36    2
    29    36    45   am
    30   110   113   am
    31   124   123    1
    32    17    16    2
    33   102   108   am
    34   102   101    1
    35    30    27    1
    36    50    49    1
    37   123   122    1
    38   104   101    1
    39    45    46    1
    40     4     3    2
    41   113   114    1
    42    27    28    1
    43    27    26    1
    44    16    18   am
    45    16    15    1
    46   101   100    1
    47     8     7   ar
    48    28    29    2
    49   122   119   am
    50    46    49    1
    51    46    47    1
    52   116   115    2
    53   114   115    1
    54     3     2    1
    55    15    14    1
    56   115   117   am
    57     7     9   ar
    58     7     6    1
    59     2     1    1
    60     2     5    1
    61    14    11    1
    62    26    21   am
    63   119   120    2
    64   119   118    1
    65   100    90   am
    66    22    21    2
    67    13    12    2
    68    47    51   am
    69    47    48    2
    70   117   118    1
    71    91    90    2
    72    21    20    1
    73     5     6    1
    74    51    52    1
    75    90    89    1
    76    11    12    1
    77    11    10    1
    78   118   121    1
    79    12    19   am
    80    54    53    2
    81    19    20    1
    82    20    23    1
    83    53    52    1
    84    52    55    1
    85    88    89    1
    86    89    92    1
    87    58    60   ar
    88    58    56   ar
    89    95    97   ar
    90    95    93   ar
    91    87    85   ar
    92    87    86   ar
    93    60    59   ar
    94    97    98   ar
    95    85    83   ar
    96    55    56    1
    97    56    57   ar
    98    92    93    1
    99    23    24    1
   100    23    25    1
   101    86    84   ar
   102    93    94   ar
   103    59    57   ar
   104    98    99    1
   105    98    96   ar
   106    83    82   ar
   107    84    82   ar
   108    94    96   ar
   109    82    81    1
   110    67    65    1
   111    68    66    1
   112    81    78    1
   113    66    65    1
   114    65    62    1
   115    78    79    1
   116    78    77    1
   117    80    79    2
   118    64    63    2
   119    63    62    1
   120    62    61    1
   121    77    71   am
   122    72    71    2
   123    71    70    1
   124    73    70    1
   125    73    74    1
   126    70    69    1
   127    75    74    2
   128    74    76   am
