@<TRIPOS>MOLECULE
tmp/182lA01.pdb
 122 113 0 0 0
SMALL
GASTEIGER

@<TRIPOS>ATOM
      1  N         24.4480    6.7540   12.4020 N.3    78  ILE78      -0.1245
      2  CA        24.1240    6.1550   11.1250 C.3    78  ILE78       0.1561
      3  C         22.9320    5.1670   11.3150 C.2    78  ILE78       0.2260
      4  O         21.9360    5.1640   10.5710 O.2    78  ILE78      -0.2867
      5  CB        25.3430    5.3310   10.6320 C.3    78  ILE78       0.0252
      6  CG1       26.4090    6.2780   10.0120 C.3    78  ILE78       0.0019
      7  CG2       24.8610    4.3030    9.6070 C.3    78  ILE78       0.0019
      8  CD1       27.7070    5.5720    9.6150 C.3    78  ILE78       0.0001
      9  N         20.2310    6.7490    6.1140 N.3    84  LEU84      -0.1245
     10  CA        21.5330    6.1300    6.0980 C.3    84  LEU84       0.1561
     11  C         21.5720    4.6560    6.3580 C.2    84  LEU84       0.2260
     12  O         22.2620    3.9350    5.7160 O.2    84  LEU84      -0.2867
     13  CB        22.4600    6.8650    7.1120 C.3    84  LEU84       0.0270
     14  CG        22.5360    8.3430    6.7830 C.3    84  LEU84       0.0019
     15  CD1       23.4200    9.1030    7.7680 C.3    84  LEU84       0.0001
     16  CD2       23.0490    8.5340    5.3530 C.3    84  LEU84       0.0001
     17  N         21.4900    1.9720    3.7000 N.3    87  VAL87      -0.1231
     18  CA        22.6610    1.9300    2.8370 C.3    87  VAL87       0.1692
     19  C         23.8020    1.2140    3.5390 C.2    87  VAL87       0.2592
     20  O         24.4990    0.3330    3.0310 O.2    87  VAL87      -0.2718
     21  CB        23.1310    3.3520    2.3730 C.3    87  VAL87       0.0266
     22  CG1       24.2890    3.2360    1.3450 C.3    87  VAL87       0.0020
     23  CG2       21.9460    4.1600    1.8230 C.3    87  VAL87       0.0020
     24  N         24.0100    1.6510    4.7410 N.am   88  TYR88      -0.1976
     25  CA        25.0630    1.1000    5.5470 C.3    88  TYR88       0.1639
     26  C         24.8650   -0.4050    5.7150 C.2    88  TYR88       0.2290
     27  O         25.8060   -1.2040    5.6390 O.2    88  TYR88      -0.2864
     28  CB        24.9290    1.8110    6.9140 C.3    88  TYR88       0.0560
     29  CG        26.0120    1.4390    7.8710 C.ar   88  TYR88      -0.0198
     30  CD1       27.2580    2.0730    7.8170 C.ar   88  TYR88      -0.0009
     31  CD2       25.7930    0.4220    8.7980 C.ar   88  TYR88      -0.0009
     32  CE1       28.2830    1.7140    8.6980 C.ar   88  TYR88       0.0417
     33  CE2       26.8240    0.0350    9.6550 C.ar   88  TYR88       0.0417
     34  CZ        28.0410    0.7260    9.6470 C.ar   88  TYR88       0.1957
     35  OH        29.0530    0.3280   10.4830 O.3    88  TYR88      -0.2866
     36  N         26.2150   -2.5260    2.8560 N.3    91  LEU91      -0.1245
     37  CA        27.6440   -2.5470    2.5810 C.3    91  LEU91       0.1561
     38  C         28.4270   -3.6510    3.2520 C.2    91  LEU91       0.2260
     39  O         28.0750   -4.1010    4.3360 O.2    91  LEU91      -0.2867
     40  CB        28.2630   -1.2000    3.0690 C.3    91  LEU91       0.0270
     41  CG        27.6750    0.0310    2.3630 C.3    91  LEU91       0.0019
     42  CD1       28.2500    1.3120    2.9570 C.3    91  LEU91       0.0001
     43  CD2       28.0780   -0.0070    0.8950 C.3    91  LEU91       0.0001
     44  N         32.0730    4.7230    5.0790 N.3    99  ALA99      -0.1245
     45  CA        30.8510    5.4310    5.4180 C.3    99  ALA99       0.1562
     46  C         30.9750    6.1260    6.7740 C.2    99  ALA99       0.2260
     47  O         30.5060    7.2290    6.9830 O.2    99  ALA99      -0.2867
     48  CB        29.6450    4.4450    5.4700 C.3    99  ALA99       0.0290
     49  N         33.1940    9.3010    6.4970 N.3   102  MET102     -0.1230
     50  CA        32.5150   10.4640    5.9830 C.3   102  MET102      0.1702
     51  C         31.6020   11.1280    7.0190 C.2   102  MET102      0.2592
     52  O         31.5390   12.3310    7.1410 O.2   102  MET102     -0.2718
     53  CB        31.6990   10.1260    4.7250 C.3   102  MET102      0.0401
     54  CG        32.5120    9.8600    3.4530 C.3   102  MET102      0.0596
     55  SD        31.4190    9.7500    2.0180 S.3   102  MET102     -0.1393
     56  CE        30.9010   11.4740    1.7400 C.3   102  MET102      0.0692
     57  N         30.8930   10.3290    7.7730 N.am  103  VAL103     -0.1980
     58  CA        30.0070   10.9010    8.7880 C.3   103  VAL103      0.1595
     59  C         30.8490   11.5520    9.8950 C.2   103  VAL103      0.2287
     60  O         30.4870   12.5820   10.4070 O.2   103  VAL103     -0.2864
     61  CB        29.0910    9.8390    9.3950 C.3   103  VAL103      0.0276
     62  CG1       28.4390   10.3680   10.6600 C.3   103  VAL103      0.0022
     63  CG2       27.9460    9.5260    8.4530 C.3   103  VAL103      0.0022
     64  N         26.3690   14.3680    5.1820 N.3   111  VAL111     -0.1245
     65  CA        26.2930   13.1830    4.3370 C.3   111  VAL111      0.1561
     66  C         24.9370   12.9420    3.7260 C.2   111  VAL111      0.2260
     67  O         24.8110   12.4770    2.5860 O.2   111  VAL111     -0.2867
     68  CB        26.7450   12.0080    5.1460 C.3   111  VAL111      0.0252
     69  CG1       26.5100   10.7310    4.3630 C.3   111  VAL111      0.0019
     70  CG2       28.2220   12.2290    5.3730 C.3   111  VAL111      0.0019
     71  N         24.3020   13.6350    0.0390 N.3   114  PHE114     -0.1241
     72  CA        24.9010   12.8560   -1.0050 C.3   114  PHE114      0.1605
     73  C         23.8710   11.8020   -1.4950 C.2   114  PHE114      0.2264
     74  O         24.1820   10.6520   -1.8090 O.2   114  PHE114     -0.2867
     75  CB        26.2050   12.1870   -0.4840 C.3   114  PHE114      0.0534
     76  CG        27.3800   13.1100   -0.3800 C.ar  114  PHE114     -0.0203
     77  CD1       27.4170   14.1440    0.5580 C.ar  114  PHE114     -0.0042
     78  CD2       28.4740   12.9470   -1.2330 C.ar  114  PHE114     -0.0042
     79  CE1       28.5110   14.9960    0.6180 C.ar  114  PHE114     -0.0003
     80  CE2       29.5730   13.8010   -1.1970 C.ar  114  PHE114     -0.0003
     81  CZ        29.5800   14.8370   -0.2640 C.ar  114  PHE114     -0.0000
     82  N         24.7160    9.6530   -4.5880 N.3   117  SER117     -0.1202
     83  CA        25.7890    8.7210   -4.3730 C.3   117  SER117      0.2020
     84  C         25.3250    7.5400   -3.5250 C.2   117  SER117      0.2618
     85  O         25.7420    6.4150   -3.7570 O.2   117  SER117     -0.2717
     86  CB        26.9110    9.3830   -3.5980 C.3   117  SER117      0.2103
     87  OG        27.4270   10.4670   -4.3410 O.3   117  SER117     -0.2182
     88  N         24.5080    7.8590   -2.5170 N.am  118  LEU118     -0.1979
     89  CA        24.0040    6.8360   -1.5980 C.3   118  LEU118      0.1596
     90  C         23.2520    5.7850   -2.3790 C.2   118  LEU118      0.2287
     91  O         23.4270    4.5690   -2.2530 O.2   118  LEU118     -0.2864
     92  CB        23.1140    7.4240   -0.4620 C.3   118  LEU118      0.0297
     93  CG        23.8120    8.3920    0.5100 C.3   118  LEU118      0.0022
     94  CD1       22.7700    9.1460    1.3670 C.3   118  LEU118      0.0001
     95  CD2       24.8110    7.6510    1.4060 C.3   118  LEU118      0.0001
     96  N         25.6030    3.6260   -4.2620 N.3   121  LEU121     -0.1245
     97  CA        26.3070    2.6800   -3.4040 C.3   121  LEU121      0.1561
     98  C         25.3680    1.5020   -3.0200 C.2   121  LEU121      0.2260
     99  O         25.7120    0.3150   -3.0220 O.2   121  LEU121     -0.2867
    100  CB        26.7730    3.4080   -2.1390 C.3   121  LEU121      0.0270
    101  CG        27.9770    4.3470   -2.3880 C.3   121  LEU121      0.0019
    102  CD1       28.2340    5.2250   -1.1570 C.3   121  LEU121      0.0001
    103  CD2       29.2670    3.5850   -2.6570 C.3   121  LEU121      0.0001
    104  N         30.6600   10.7820   -6.2370 N.3   133  LEU133     -0.1245
    105  CA        31.1470   11.3160   -4.9470 C.3   133  LEU133      0.1561
    106  C         32.1110   12.4930   -5.1130 C.2   133  LEU133      0.2260
    107  O         32.2050   13.3830   -4.2780 O.2   133  LEU133     -0.2867
    108  CB        31.8750   10.2120   -4.1080 C.3   133  LEU133      0.0270
    109  CG        30.9260    9.1870   -3.4520 C.3   133  LEU133      0.0019
    110  CD1       31.7430    8.0050   -2.9000 C.3   133  LEU133      0.0001
    111  CD2       30.2330    9.8700   -2.2800 C.3   133  LEU133      0.0001
    112  N         35.5870    3.0780   -1.3030 N.3   153  PHE153     -0.1241
    113  CA        34.2480    2.6350   -1.6870 C.3   153  PHE153      0.1605
    114  C         34.2940    1.9600   -3.0440 C.2   153  PHE153      0.2264
    115  O         33.5510    1.0420   -3.3700 O.2   153  PHE153     -0.2867
    116  CB        33.3330    3.8680   -1.8500 C.3   153  PHE153      0.0534
    117  CG        32.6750    4.3920   -0.5900 C.ar  153  PHE153     -0.0203
    118  CD1       31.8080    3.6170    0.1950 C.ar  153  PHE153     -0.0042
    119  CD2       32.8960    5.7170   -0.2120 C.ar  153  PHE153     -0.0042
    120  CE1       31.1490    4.1390    1.3200 C.ar  153  PHE153     -0.0003
    121  CE2       32.2610    6.2360    0.9220 C.ar  153  PHE153     -0.0003
    122  CZ        31.3930    5.4600    1.6990 C.ar  153  PHE153     -0.0000
@<TRIPOS>BOND
     1   104   105    1
     2   106   105    1
     3   106   107    2
     4   105   108    1
     5    82    83    1
     6    83    86    1
     7    83    84    1
     8    87    86    1
     9    96    97    1
    10   108   109    1
    11    85    84    2
    12    84    88   am
    13   109   110    1
    14   109   111    1
    15    97    98    1
    16    97   100    1
    17   115   114    2
    18   114   113    1
    19    99    98    2
    20   103   101    1
    21    88    89    1
    22   101   100    1
    23   101   102    1
    24    90    91    2
    25    90    89    1
    26   116   113    1
    27   116   117    1
    28    74    73    2
    29   113   112    1
    30    89    92    1
    31    73    72    1
    32    78    80   ar
    33    78    76   ar
    34    80    81   ar
    35    72    75    1
    36    72    71    1
    37   117   119   ar
    38   117   118   ar
    39    75    76    1
    40    92    93    1
    41    76    77   ar
    42    81    79   ar
    43   119   121   ar
    44   118   120   ar
    45    93    94    1
    46    93    95    1
    47    77    79   ar
    48    43    41    1
    49   121   122   ar
    50   120   122   ar
    51    22    21    1
    52    56    55    1
    53    23    21    1
    54    55    54    1
    55    41    42    1
    56    41    40    1
    57    21    18    1
    58    37    36    1
    59    37    40    1
    60    37    38    1
    61    67    66    2
    62    18    19    1
    63    18    17    1
    64    20    19    2
    65    38    39    2
    66    54    53    1
    67    19    24   am
    68    66    65    1
    69    65    68    1
    70    65    64    1
    71    69    68    1
    72    53    50    1
    73    24    25    1
    74    44    45    1
    75    68    70    1
    76    16    14    1
    77    45    48    1
    78    45    46    1
    79    25    26    1
    80    25    28    1
    81    27    26    2
    82    12    11    2
    83    50    49    1
    84    50    51    1
    85    10     9    1
    86    10    11    1
    87    10    13    1
    88    46    47    2
    89    14    13    1
    90    14    15    1
    91    28    29    1
    92    51    52    2
    93    51    57   am
    94    57    58    1
    95    30    29   ar
    96    30    32   ar
    97    29    31   ar
    98    63    61    1
    99    32    34   ar
   100    58    61    1
   101    58    59    1
   102    31    33   ar
   103    61    62    1
   104     7     5    1
   105     8     6    1
   106    34    33   ar
   107    34    35    1
   108    59    60    2
   109     6     5    1
   110     4     3    2
   111     5     2    1
   112     2     3    1
   113     2     1    1
