@<TRIPOS>MOLECULE
tmp/183lA01.pdb
 116 107 0 0 0
SMALL
GASTEIGER

@<TRIPOS>ATOM
      1  N         24.3780    6.8730   12.2590 N.3    78  ILE78      -0.1245
      2  CA        24.0640    6.2160   10.9950 C.3    78  ILE78       0.1561
      3  C         22.8980    5.2370   11.2290 C.2    78  ILE78       0.2260
      4  O         21.8970    5.1820   10.4940 O.2    78  ILE78      -0.2867
      5  CB        25.3180    5.4210   10.4850 C.3    78  ILE78       0.0252
      6  CG1       26.3910    6.3420    9.8620 C.3    78  ILE78       0.0019
      7  CG2       24.8930    4.3780    9.4330 C.3    78  ILE78       0.0019
      8  CD1       27.7450    5.6240    9.5460 C.3    78  ILE78       0.0001
      9  N         20.1120    6.6580    6.1620 N.3    84  LEU84      -0.1245
     10  CA        21.4400    6.1060    6.1630 C.3    84  LEU84       0.1561
     11  C         21.5530    4.6370    6.4460 C.2    84  LEU84       0.2260
     12  O         22.2890    3.9140    5.8320 O.2    84  LEU84      -0.2867
     13  CB        22.2550    6.9400    7.1650 C.3    84  LEU84       0.0270
     14  CG        22.5090    8.3760    6.6560 C.3    84  LEU84       0.0019
     15  CD1       23.4970    9.1510    7.5310 C.3    84  LEU84       0.0001
     16  CD2       22.9400    8.4070    5.1870 C.3    84  LEU84       0.0001
     17  N         21.4100    2.1160    3.7990 N.3    87  VAL87      -0.1231
     18  CA        22.5280    2.0060    2.9000 C.3    87  VAL87       0.1692
     19  C         23.6620    1.2890    3.5630 C.2    87  VAL87       0.2592
     20  O         24.3100    0.4020    3.0310 O.2    87  VAL87      -0.2718
     21  CB        22.9910    3.3520    2.3230 C.3    87  VAL87       0.0266
     22  CG1       24.1510    3.0960    1.3180 C.3    87  VAL87       0.0020
     23  CG2       21.8220    4.0350    1.5860 C.3    87  VAL87       0.0020
     24  N         23.8940    1.7000    4.7570 N.am   88  TYR88      -0.1976
     25  CA        24.9720    1.1820    5.5500 C.3    88  TYR88       0.1639
     26  C         24.8420   -0.3130    5.7640 C.2    88  TYR88       0.2290
     27  O         25.8050   -1.0820    5.7670 O.2    88  TYR88      -0.2864
     28  CB        24.8890    1.9990    6.8480 C.3    88  TYR88       0.0560
     29  CG        25.9340    1.5750    7.8120 C.ar   88  TYR88      -0.0198
     30  CD1       27.2210    2.1120    7.7570 C.ar   88  TYR88      -0.0009
     31  CD2       25.6460    0.5990    8.7600 C.ar   88  TYR88      -0.0009
     32  CE1       28.2300    1.7120    8.6370 C.ar   88  TYR88       0.0417
     33  CE2       26.6280    0.2120    9.6710 C.ar   88  TYR88       0.0417
     34  CZ        27.9060    0.7830    9.6220 C.ar   88  TYR88       0.1957
     35  OH        28.8600    0.3730   10.4910 O.3    88  TYR88      -0.2866
     36  N         26.0780   -2.5470    2.8630 N.3    91  LEU91      -0.1245
     37  CA        27.5180   -2.5860    2.6160 C.3    91  LEU91       0.1561
     38  C         28.2870   -3.6920    3.3390 C.2    91  LEU91       0.2260
     39  O         27.8620   -4.1740    4.3980 O.2    91  LEU91      -0.2867
     40  CB        28.1490   -1.2200    2.9730 C.3    91  LEU91       0.0270
     41  CG        27.4700   -0.0010    2.3310 C.3    91  LEU91       0.0019
     42  CD1       27.9510    1.3010    2.9950 C.3    91  LEU91       0.0001
     43  CD2       27.7810    0.0570    0.8490 C.3    91  LEU91       0.0001
     44  N         31.9610    4.7110    5.0520 N.3    99  ALA99      -0.1245
     45  CA        30.7540    5.4660    5.3760 C.3    99  ALA99       0.1562
     46  C         30.8740    6.1270    6.7590 C.2    99  ALA99       0.2260
     47  O         30.3280    7.1540    6.9520 O.2    99  ALA99      -0.2867
     48  CB        29.5300    4.5050    5.3790 C.3    99  ALA99       0.0290
     49  N         33.1610    9.3800    6.5330 N.3   102  MET102     -0.1230
     50  CA        32.4080   10.5150    5.9970 C.3   102  MET102      0.1702
     51  C         31.5610   11.1830    7.0420 C.2   102  MET102      0.2592
     52  O         31.6080   12.3690    7.1410 O.2   102  MET102     -0.2718
     53  CB        31.5380   10.1560    4.7700 C.3   102  MET102      0.0401
     54  CG        32.3590    9.8170    3.5090 C.3   102  MET102      0.0596
     55  SD        31.4820    9.6970    1.9320 S.3   102  MET102     -0.1393
     56  CE        30.6830   11.3140    1.8190 C.3   102  MET102      0.0692
     57  N         30.7550   10.4090    7.8000 N.am  103  VAL103     -0.1980
     58  CA        29.8940   10.9650    8.8360 C.3   103  VAL103      0.1595
     59  C         30.6940   11.6320    9.9340 C.2   103  VAL103      0.2287
     60  O         30.2800   12.6650   10.4700 O.2   103  VAL103     -0.2864
     61  CB        28.9260    9.9480    9.4330 C.3   103  VAL103      0.0276
     62  CG1       28.2810   10.5150   10.6930 C.3   103  VAL103      0.0022
     63  CG2       27.8080    9.8360    8.4340 C.3   103  VAL103      0.0022
     64  N         26.3640   14.7550    5.1210 N.3   111  VAL111     -0.1245
     65  CA        26.1980   13.5990    4.2450 C.3   111  VAL111      0.1561
     66  C         24.7970   13.5300    3.6350 C.2   111  VAL111      0.2260
     67  O         24.4600   12.6080    2.8930 O.2   111  VAL111     -0.2867
     68  CB        26.5510   12.3930    5.0660 C.3   111  VAL111      0.0252
     69  CG1       26.2270   11.1080    4.3520 C.3   111  VAL111      0.0019
     70  CG2       28.0490   12.4860    5.3090 C.3   111  VAL111      0.0019
     71  N         24.1150   13.8940   -0.4260 N.3   114  PHE114     -0.1241
     72  CA        24.6960   12.7950   -1.0880 C.3   114  PHE114      0.1605
     73  C         23.6950   11.7740   -1.5290 C.2   114  PHE114      0.2264
     74  O         24.0890   10.6820   -1.8760 O.2   114  PHE114     -0.2867
     75  CB        25.7750   12.1660   -0.2260 C.3   114  PHE114      0.0534
     76  CG        27.0210   13.0050   -0.2350 C.ar  114  PHE114     -0.0203
     77  CD1       27.1620   14.1120    0.5900 C.ar  114  PHE114     -0.0042
     78  CD2       28.0480   12.7230   -1.1330 C.ar  114  PHE114     -0.0042
     79  CE1       28.3140   14.8970    0.5680 C.ar  114  PHE114     -0.0003
     80  CE2       29.2200   13.4780   -1.1580 C.ar  114  PHE114     -0.0003
     81  CZ        29.3480   14.5720   -0.3170 C.ar  114  PHE114     -0.0000
     82  N         24.3470    7.8840   -2.5100 N.3   118  LEU118     -0.1245
     83  CA        23.8030    6.8760   -1.6100 C.3   118  LEU118      0.1561
     84  C         23.0960    5.8330   -2.3950 C.2   118  LEU118      0.2260
     85  O         23.2410    4.6450   -2.2040 O.2   118  LEU118     -0.2867
     86  CB        22.8230    7.4290   -0.5480 C.3   118  LEU118      0.0270
     87  CG        23.4520    8.3590    0.5230 C.3   118  LEU118      0.0019
     88  CD1       22.3910    8.7690    1.5220 C.3   118  LEU118      0.0001
     89  CD2       24.6530    7.7630    1.2640 C.3   118  LEU118      0.0001
     90  N         25.4270    3.7010   -4.2910 N.3   121  LEU121     -0.1245
     91  CA        26.1520    2.7840   -3.4490 C.3   121  LEU121      0.1561
     92  C         25.2490    1.5670   -3.1030 C.2   121  LEU121      0.2260
     93  O         25.6390    0.3900   -3.1160 O.2   121  LEU121     -0.2867
     94  CB        26.5830    3.5410   -2.1850 C.3   121  LEU121      0.0270
     95  CG        27.8590    4.3500   -2.3770 C.3   121  LEU121      0.0019
     96  CD1       28.1190    5.1710   -1.1120 C.3   121  LEU121      0.0001
     97  CD2       29.0260    3.3980   -2.5950 C.3   121  LEU121      0.0001
     98  N         30.6460   10.7840   -6.2230 N.3   133  LEU133     -0.1245
     99  CA        31.0970   11.3300   -4.9290 C.3   133  LEU133      0.1561
    100  C         32.0840   12.4750   -5.0930 C.2   133  LEU133      0.2260
    101  O         32.1260   13.4210   -4.2650 O.2   133  LEU133     -0.2867
    102  CB        31.7650   10.2090   -4.0880 C.3   133  LEU133      0.0270
    103  CG        30.7850    9.1830   -3.4750 C.3   133  LEU133      0.0019
    104  CD1       31.5690    7.9520   -2.9520 C.3   133  LEU133      0.0001
    105  CD2       30.0400    9.8070   -2.3160 C.3   133  LEU133      0.0001
    106  N         35.5210    3.0140   -1.3200 N.3   153  PHE153     -0.1241
    107  CA        34.1790    2.6070   -1.7290 C.3   153  PHE153      0.1605
    108  C         34.1760    1.8920   -3.0690 C.2   153  PHE153      0.2264
    109  O         33.4950    0.8890   -3.2730 O.2   153  PHE153     -0.2867
    110  CB        33.2750    3.8360   -1.8740 C.3   153  PHE153      0.0534
    111  CG        32.6430    4.3420   -0.5870 C.ar  153  PHE153     -0.0203
    112  CD1       31.8460    3.5200    0.2150 C.ar  153  PHE153     -0.0042
    113  CD2       32.7490    5.6890   -0.2310 C.ar  153  PHE153     -0.0042
    114  CE1       31.1690    4.0080    1.3380 C.ar  153  PHE153     -0.0003
    115  CE2       32.0780    6.1790    0.8940 C.ar  153  PHE153     -0.0003
    116  CZ        31.2970    5.3440    1.6960 C.ar  153  PHE153     -0.0000
@<TRIPOS>BOND
     1    98    99    1
     2   100    99    1
     3   100   101    2
     4    99   102    1
     5    90    91    1
     6   102   103    1
     7   103   104    1
     8   103   105    1
     9    91    92    1
    10    91    94    1
    11   109   108    2
    12    93    92    2
    13   108   107    1
    14    97    95    1
    15    82    83    1
    16    84    85    2
    17    84    83    1
    18    95    94    1
    19    95    96    1
    20    74    73    2
    21   110   107    1
    22   110   111    1
    23   107   106    1
    24    83    86    1
    25    73    72    1
    26    80    78   ar
    27    80    81   ar
    28    78    76   ar
    29    72    71    1
    30    72    75    1
    31   111   113   ar
    32   111   112   ar
    33    86    87    1
    34    81    79   ar
    35    76    75    1
    36    76    77   ar
    37   113   115   ar
    38   112   114   ar
    39    87    89    1
    40    87    88    1
    41    79    77   ar
    42    43    41    1
    43   115   116   ar
    44    22    21    1
    45   114   116   ar
    46    23    21    1
    47    56    55    1
    48    55    54    1
    49    21    18    1
    50    41    40    1
    51    41    42    1
    52    37    36    1
    53    37    40    1
    54    37    38    1
    55    67    66    2
    56    18    19    1
    57    18    17    1
    58    20    19    2
    59    38    39    2
    60    54    53    1
    61    19    24   am
    62    66    65    1
    63    65    68    1
    64    65    64    1
    65    69    68    1
    66    24    25    1
    67    53    50    1
    68    44    45    1
    69    68    70    1
    70    16    14    1
    71    45    48    1
    72    45    46    1
    73    25    26    1
    74    25    28    1
    75    26    27    2
    76    12    11    2
    77    50    49    1
    78    50    51    1
    79     9    10    1
    80    10    11    1
    81    10    13    1
    82    14    13    1
    83    14    15    1
    84    46    47    2
    85    28    29    1
    86    51    52    2
    87    51    57   am
    88    30    29   ar
    89    30    32   ar
    90    57    58    1
    91    29    31   ar
    92    63    61    1
    93    32    34   ar
    94    31    33   ar
    95    58    61    1
    96    58    59    1
    97    61    62    1
    98     7     5    1
    99     8     6    1
   100    34    33   ar
   101    34    35    1
   102     6     5    1
   103    59    60    2
   104     5     2    1
   105     4     3    2
   106     2     3    1
   107     2     1    1
