@<TRIPOS>MOLECULE
tmp/184lA01.pdb
 122 113 0 0 0
SMALL
GASTEIGER

@<TRIPOS>ATOM
      1  N         24.4080    6.9910   12.1350 N.3    78  ILE78      -0.1245
      2  CA        24.0300    6.3480   10.8910 C.3    78  ILE78       0.1561
      3  C         22.8420    5.4090   11.1380 C.2    78  ILE78       0.2260
      4  O         21.8550    5.3840   10.4010 O.2    78  ILE78      -0.2867
      5  CB        25.2240    5.5120   10.3670 C.3    78  ILE78       0.0252
      6  CG1       26.2960    6.4420    9.7460 C.3    78  ILE78       0.0019
      7  CG2       24.7560    4.4890    9.3100 C.3    78  ILE78       0.0019
      8  CD1       27.5990    5.7000    9.4470 C.3    78  ILE78       0.0001
      9  N         20.1790    6.7590    5.8730 N.3    84  LEU84      -0.1245
     10  CA        21.4950    6.1440    5.8570 C.3    84  LEU84       0.1561
     11  C         21.5550    4.6920    6.1990 C.2    84  LEU84       0.2260
     12  O         22.3030    3.9560    5.6060 O.2    84  LEU84      -0.2867
     13  CB        22.4320    6.8860    6.8150 C.3    84  LEU84       0.0270
     14  CG        22.6430    8.3680    6.4570 C.3    84  LEU84       0.0019
     15  CD1       23.6840    8.9930    7.3870 C.3    84  LEU84       0.0001
     16  CD2       23.1100    8.5280    5.0090 C.3    84  LEU84       0.0001
     17  N         21.4280    1.8940    3.5300 N.3    87  VAL87      -0.1231
     18  CA        22.5830    1.8200    2.6680 C.3    87  VAL87       0.1692
     19  C         23.7660    1.1650    3.3990 C.2    87  VAL87       0.2592
     20  O         24.4750    0.2560    2.9410 O.2    87  VAL87      -0.2718
     21  CB        22.9670    3.2120    2.0920 C.3    87  VAL87       0.0266
     22  CG1       24.1690    3.0520    1.1330 C.3    87  VAL87       0.0020
     23  CG2       21.7950    3.8500    1.3460 C.3    87  VAL87       0.0020
     24  N         23.9530    1.6390    4.6060 N.am   88  TYR88      -0.1976
     25  CA        25.0500    1.1530    5.4200 C.3    88  TYR88       0.1639
     26  C         24.9210   -0.3480    5.6350 C.2    88  TYR88       0.2290
     27  O         25.8990   -1.1110    5.5940 O.2    88  TYR88      -0.2864
     28  CB        24.9530    1.9220    6.7790 C.3    88  TYR88       0.0560
     29  CG        25.9970    1.5180    7.7970 C.ar   88  TYR88      -0.0198
     30  CD1       27.2870    2.0600    7.7440 C.ar   88  TYR88      -0.0009
     31  CD2       25.6860    0.5830    8.7900 C.ar   88  TYR88      -0.0009
     32  CE1       28.2580    1.6800    8.6660 C.ar   88  TYR88       0.0417
     33  CE2       26.6480    0.1860    9.7140 C.ar   88  TYR88       0.0417
     34  CZ        27.9170    0.7690    9.6670 C.ar   88  TYR88       0.1957
     35  OH        28.8650    0.3840   10.5630 O.3    88  TYR88      -0.2866
     36  N         26.1750   -2.6250    2.8880 N.3    91  LEU91      -0.1245
     37  CA        27.6030   -2.6160    2.5800 C.3    91  LEU91       0.1561
     38  C         28.4000   -3.6810    3.2790 C.2    91  LEU91       0.2260
     39  O         28.0040   -4.0960    4.3680 O.2    91  LEU91      -0.2867
     40  CB        28.2230   -1.2430    2.9420 C.3    91  LEU91       0.0270
     41  CG        27.6250   -0.0600    2.1860 C.3    91  LEU91       0.0019
     42  CD1       28.1380    1.2180    2.8170 C.3    91  LEU91       0.0001
     43  CD2       28.1370   -0.0920    0.7510 C.3    91  LEU91       0.0001
     44  N         32.0300    4.7440    4.9450 N.3    99  ALA99      -0.1245
     45  CA        30.8060    5.4710    5.2580 C.3    99  ALA99       0.1562
     46  C         30.9230    6.1460    6.6040 C.2    99  ALA99       0.2260
     47  O         30.4510    7.2740    6.7740 O.2    99  ALA99      -0.2867
     48  CB        29.5520    4.5670    5.2630 C.3    99  ALA99       0.0290
     49  N         33.1500    9.3200    6.4180 N.3   102  MET102     -0.1230
     50  CA        32.4930   10.4970    5.8920 C.3   102  MET102      0.1702
     51  C         31.6030   11.1820    6.9310 C.2   102  MET102      0.2592
     52  O         31.5970   12.3970    7.0380 O.2   102  MET102     -0.2718
     53  CB        31.6680   10.1590    4.6350 C.3   102  MET102      0.0401
     54  CG        32.5380    9.8570    3.4060 C.3   102  MET102      0.0596
     55  SD        31.5100    9.7220    1.9290 S.3   102  MET102     -0.1393
     56  CE        30.9730   11.4180    1.6150 C.3   102  MET102      0.0692
     57  N         30.8170   10.3830    7.6910 N.am  103  VAL103     -0.1980
     58  CA        29.9250   10.9740    8.7090 C.3   103  VAL103      0.1595
     59  C         30.7320   11.6300    9.7980 C.2   103  VAL103      0.2287
     60  O         30.3710   12.6930   10.2620 O.2   103  VAL103     -0.2864
     61  CB        28.9420    9.9650    9.3220 C.3   103  VAL103      0.0276
     62  CG1       28.1270   10.5810   10.4770 C.3   103  VAL103      0.0022
     63  CG2       27.9570    9.6350    8.2180 C.3   103  VAL103      0.0022
     64  N         26.1970   15.0620    4.9030 N.3   111  VAL111     -0.1245
     65  CA        26.1050   14.1370    3.8000 C.3   111  VAL111      0.1561
     66  C         24.7140   13.9570    3.3180 C.2   111  VAL111      0.2260
     67  O         24.3770   12.9670    2.6650 O.2   111  VAL111     -0.2867
     68  CB        26.7290   12.8130    4.1720 C.3   111  VAL111      0.0252
     69  CG1       28.1080   13.0940    4.7460 C.3   111  VAL111      0.0019
     70  CG2       25.8610   12.1820    5.2470 C.3   111  VAL111      0.0019
     71  N         24.0360   13.9610   -0.5570 N.3   114  PHE114     -0.1241
     72  CA        24.5810   12.8040   -1.2150 C.3   114  PHE114      0.1605
     73  C         23.5720   11.7560   -1.6460 C.2   114  PHE114      0.2264
     74  O         23.9060   10.5920   -1.8580 O.2   114  PHE114     -0.2867
     75  CB        25.6700   12.2060   -0.3380 C.3   114  PHE114      0.0534
     76  CG        26.9500   13.0320   -0.3450 C.ar  114  PHE114     -0.0203
     77  CD1       27.0970   14.1430    0.4850 C.ar  114  PHE114     -0.0042
     78  CD2       28.0300   12.6690   -1.1550 C.ar  114  PHE114     -0.0042
     79  CE1       28.2840   14.8720    0.4980 C.ar  114  PHE114     -0.0003
     80  CE2       29.2310   13.3850   -1.1630 C.ar  114  PHE114     -0.0003
     81  CZ        29.3420   14.4970   -0.3340 C.ar  114  PHE114     -0.0000
     82  N         24.5740    9.5610   -4.7020 N.3   117  SER117     -0.1202
     83  CA        25.6410    8.6140   -4.4190 C.3   117  SER117      0.2020
     84  C         25.1320    7.4840   -3.5250 C.2   117  SER117      0.2618
     85  O         25.5530    6.3250   -3.6690 O.2   117  SER117     -0.2717
     86  CB        26.8150    9.2460   -3.6920 C.3   117  SER117      0.2103
     87  OG        27.1750   10.4650   -4.2960 O.3   117  SER117     -0.2182
     88  N         24.2620    7.8250   -2.5670 N.am  118  LEU118     -0.1979
     89  CA        23.7070    6.8080   -1.6670 C.3   118  LEU118      0.1596
     90  C         23.0210    5.7800   -2.5040 C.2   118  LEU118      0.2287
     91  O         23.1770    4.5820   -2.3350 O.2   118  LEU118     -0.2864
     92  CB        22.6780    7.3500   -0.6460 C.3   118  LEU118      0.0297
     93  CG        23.3390    8.1150    0.5080 C.3   118  LEU118      0.0022
     94  CD1       22.2860    8.9020    1.2610 C.3   118  LEU118      0.0001
     95  CD2       24.0750    7.1810    1.4790 C.3   118  LEU118      0.0001
     96  N         25.5410    3.6140   -4.3120 N.3   121  LEU121     -0.1245
     97  CA        26.2150    2.6370   -3.4500 C.3   121  LEU121      0.1561
     98  C         25.2400    1.4810   -3.0950 C.2   121  LEU121      0.2260
     99  O         25.5940    0.2920   -3.0230 O.2   121  LEU121     -0.2867
    100  CB        26.6620    3.3470   -2.1550 C.3   121  LEU121      0.0270
    101  CG        27.8550    4.2980   -2.3100 C.3   121  LEU121      0.0019
    102  CD1       28.0290    5.0990   -1.0110 C.3   121  LEU121      0.0001
    103  CD2       29.1320    3.5170   -2.5520 C.3   121  LEU121      0.0001
    104  N         30.6770   10.7610   -6.3100 N.3   133  LEU133     -0.1245
    105  CA        31.1670   11.3510   -5.0480 C.3   133  LEU133      0.1561
    106  C         32.1870   12.4910   -5.2570 C.2   133  LEU133      0.2260
    107  O         32.2940   13.4000   -4.4240 O.2   133  LEU133     -0.2867
    108  CB        31.8520   10.2670   -4.1540 C.3   133  LEU133      0.0270
    109  CG        30.8800    9.3020   -3.4520 C.3   133  LEU133      0.0019
    110  CD1       31.6260    8.0560   -2.9430 C.3   133  LEU133      0.0001
    111  CD2       30.1510   10.0000   -2.3020 C.3   133  LEU133      0.0001
    112  N         35.5420    3.0250   -1.2860 N.3   153  PHE153     -0.1241
    113  CA        34.2040    2.5950   -1.6970 C.3   153  PHE153      0.1605
    114  C         34.2530    1.8970   -3.0480 C.2   153  PHE153      0.2264
    115  O         33.4730    0.9890   -3.3460 O.2   153  PHE153     -0.2867
    116  CB        33.2750    3.8030   -1.8580 C.3   153  PHE153      0.0534
    117  CG        32.6190    4.3650   -0.6090 C.ar  153  PHE153     -0.0203
    118  CD1       31.7440    3.5920    0.1610 C.ar  153  PHE153     -0.0042
    119  CD2       32.7830    5.7060   -0.2430 C.ar  153  PHE153     -0.0042
    120  CE1       31.0650    4.1210    1.2680 C.ar  153  PHE153     -0.0003
    121  CE2       32.1190    6.2510    0.8670 C.ar  153  PHE153     -0.0003
    122  CZ        31.2660    5.4500    1.6360 C.ar  153  PHE153     -0.0000
@<TRIPOS>BOND
     1   104   105    1
     2   106   105    1
     3   106   107    2
     4   105   108    1
     5    82    83    1
     6    83    86    1
     7    83    84    1
     8    96    97    1
     9    87    86    1
    10   108   109    1
    11    85    84    2
    12    84    88   am
    13   109   110    1
    14   109   111    1
    15    97    98    1
    16    97   100    1
    17   115   114    2
    18    98    99    2
    19   114   113    1
    20    88    89    1
    21   103   101    1
    22    90    91    2
    23    90    89    1
    24   101   100    1
    25   101   102    1
    26    74    73    2
    27   116   113    1
    28   116   117    1
    29   113   112    1
    30    89    92    1
    31    73    72    1
    32    72    71    1
    33    72    75    1
    34    80    78   ar
    35    80    81   ar
    36    78    76   ar
    37    92    93    1
    38   117   119   ar
    39   117   118   ar
    40    76    75    1
    41    76    77   ar
    42    81    79   ar
    43   119   121   ar
    44   118   120   ar
    45    77    79   ar
    46    93    94    1
    47    93    95    1
    48    43    41    1
    49   121   122   ar
    50    22    21    1
    51   120   122   ar
    52    23    21    1
    53    56    55    1
    54    55    54    1
    55    21    18    1
    56    41    42    1
    57    41    40    1
    58    37    36    1
    59    37    40    1
    60    37    38    1
    61    67    66    2
    62    18    19    1
    63    18    17    1
    64    20    19    2
    65    38    39    2
    66    66    65    1
    67    19    24   am
    68    54    53    1
    69    65    68    1
    70    65    64    1
    71    68    69    1
    72    68    70    1
    73    24    25    1
    74    53    50    1
    75    44    45    1
    76    16    14    1
    77    45    48    1
    78    45    46    1
    79    25    26    1
    80    25    28    1
    81    27    26    2
    82    12    11    2
    83    10     9    1
    84    10    11    1
    85    10    13    1
    86    50    49    1
    87    50    51    1
    88    14    13    1
    89    14    15    1
    90    46    47    2
    91    28    29    1
    92    51    52    2
    93    51    57   am
    94    57    58    1
    95    30    29   ar
    96    30    32   ar
    97    29    31   ar
    98    63    61    1
    99    32    34   ar
   100    58    61    1
   101    58    59    1
   102    31    33   ar
   103     7     5    1
   104    61    62    1
   105     8     6    1
   106    34    33   ar
   107    34    35    1
   108     6     5    1
   109    59    60    2
   110     5     2    1
   111     4     3    2
   112     2     3    1
   113     2     1    1
