@<TRIPOS>MOLECULE
tmp/185lA01.pdb
 105 96 0 0 0
SMALL
GASTEIGER

@<TRIPOS>ATOM
      1  N         24.5750    6.7270   12.5950 N.3    78  ILE78      -0.1245
      2  CA        24.2430    6.1530   11.3120 C.3    78  ILE78       0.1561
      3  C         23.0930    5.1480   11.5150 C.2    78  ILE78       0.2260
      4  O         22.1080    5.1210   10.7840 O.2    78  ILE78      -0.2867
      5  CB        25.4660    5.3910   10.7960 C.3    78  ILE78       0.0252
      6  CG1       26.4830    6.3540   10.1690 C.3    78  ILE78       0.0019
      7  CG2       25.0170    4.3300    9.7840 C.3    78  ILE78       0.0019
      8  CD1       27.8640    5.7160    9.9440 C.3    78  ILE78       0.0001
      9  N         20.3980    6.7550    6.3150 N.3    84  LEU84      -0.1245
     10  CA        21.7070    6.1610    6.2800 C.3    84  LEU84       0.1561
     11  C         21.7460    4.6850    6.5520 C.2    84  LEU84       0.2260
     12  O         22.5030    3.9500    5.9680 O.2    84  LEU84      -0.2867
     13  CB        22.6220    6.8970    7.2790 C.3    84  LEU84       0.0270
     14  CG        22.7490    8.3800    6.9400 C.3    84  LEU84       0.0019
     15  CD1       23.6860    9.0570    7.9290 C.3    84  LEU84       0.0001
     16  CD2       23.3310    8.5430    5.5390 C.3    84  LEU84       0.0001
     17  N         21.6400    2.0210    3.8010 N.3    87  VAL87      -0.1231
     18  CA        22.8070    1.9940    2.9330 C.3    87  VAL87       0.1692
     19  C         23.9570    1.2790    3.6190 C.2    87  VAL87       0.2592
     20  O         24.6350    0.4120    3.0890 O.2    87  VAL87      -0.2718
     21  CB        23.2370    3.4070    2.4360 C.3    87  VAL87       0.0266
     22  CG1       24.4000    3.2810    1.4240 C.3    87  VAL87       0.0020
     23  CG2       22.0330    4.1710    1.8320 C.3    87  VAL87       0.0020
     24  N         24.1630    1.7010    4.8310 N.am   88  TYR88      -0.1976
     25  CA        25.1950    1.1800    5.6330 C.3    88  TYR88       0.1639
     26  C         25.0450   -0.3390    5.7600 C.2    88  TYR88       0.2290
     27  O         26.0230   -1.1030    5.7000 O.2    88  TYR88      -0.2864
     28  CB        25.0640    1.9070    6.9990 C.3    88  TYR88       0.0560
     29  CG        26.1400    1.4970    7.9320 C.ar   88  TYR88      -0.0198
     30  CD1       27.4000    2.0940    7.8680 C.ar   88  TYR88      -0.0009
     31  CD2       25.9160    0.4800    8.8510 C.ar   88  TYR88      -0.0009
     32  CE1       28.4290    1.6840    8.7130 C.ar   88  TYR88       0.0417
     33  CE2       26.9400    0.0460    9.6920 C.ar   88  TYR88       0.0417
     34  CZ        28.1880    0.6730    9.6360 C.ar   88  TYR88       0.1957
     35  OH        29.2020    0.2960   10.4810 O.3    88  TYR88      -0.2866
     36  N         26.3760   -2.4490    2.8270 N.3    91  LEU91      -0.1245
     37  CA        27.8020   -2.4900    2.5440 C.3    91  LEU91       0.1561
     38  C         28.5990   -3.6070    3.2150 C.2    91  LEU91       0.2260
     39  O         28.2220   -4.0980    4.2730 O.2    91  LEU91      -0.2867
     40  CB        28.4310   -1.1480    2.9980 C.3    91  LEU91       0.0270
     41  CG        27.8550    0.0970    2.3170 C.3    91  LEU91       0.0019
     42  CD1       28.3020    1.3530    3.0680 C.3    91  LEU91       0.0001
     43  CD2       28.3920    0.1490    0.8930 C.3    91  LEU91       0.0001
     44  N         32.1750    4.7420    5.1280 N.3    99  ALA99      -0.1245
     45  CA        30.9250    5.4490    5.4730 C.3    99  ALA99       0.1562
     46  C         31.0810    6.1550    6.8260 C.2    99  ALA99       0.2260
     47  O         30.6640    7.2680    6.9730 O.2    99  ALA99      -0.2867
     48  CB        29.7010    4.5010    5.5200 C.3    99  ALA99       0.0290
     49  N         33.2710    9.3470    6.5520 N.3   102  MET102     -0.1230
     50  CA        32.5740   10.5010    6.0560 C.3   102  MET102      0.1702
     51  C         31.7160   11.1460    7.1520 C.2   102  MET102      0.2592
     52  O         31.6630   12.3480    7.2630 O.2   102  MET102     -0.2718
     53  CB        31.6640   10.1670    4.8650 C.3   102  MET102      0.0401
     54  CG        32.3690    9.9130    3.5280 C.3   102  MET102      0.0596
     55  SD        31.1650    9.6790    2.1960 S.3   102  MET102     -0.1393
     56  CE        30.6950   11.3750    1.8290 C.3   102  MET102      0.0692
     57  N         30.9990   10.3440    7.9380 N.am  103  VAL103     -0.1980
     58  CA        30.1480   10.8860    9.0110 C.3   103  VAL103      0.1595
     59  C         30.9970   11.5830   10.0580 C.2   103  VAL103      0.2287
     60  O         30.6780   12.6690   10.5180 O.2   103  VAL103     -0.2864
     61  CB        29.2680    9.7930    9.6460 C.3   103  VAL103      0.0276
     62  CG1       28.6320   10.3130   10.9220 C.3   103  VAL103      0.0022
     63  CG2       28.1150    9.5320    8.7090 C.3   103  VAL103      0.0022
     64  N         26.3800   14.3380    5.3450 N.3   111  VAL111     -0.1245
     65  CA        26.2900   13.1270    4.5380 C.3   111  VAL111      0.1561
     66  C         24.9480   12.8870    3.8960 C.2   111  VAL111      0.2260
     67  O         24.8720   12.4870    2.7330 O.2   111  VAL111     -0.2867
     68  CB        26.7670   11.9130    5.2970 C.3   111  VAL111      0.0252
     69  CG1       26.6320   10.6390    4.4300 C.3   111  VAL111      0.0019
     70  CG2       28.2150   12.1980    5.6560 C.3   111  VAL111      0.0019
     71  N         24.5690    7.8970   -2.4330 N.3   118  LEU118     -0.1245
     72  CA        24.1170    6.8460   -1.5210 C.3   118  LEU118      0.1561
     73  C         23.3200    5.8400   -2.2700 C.2   118  LEU118      0.2260
     74  O         23.4460    4.6580   -2.0800 O.2   118  LEU118     -0.2867
     75  CB        23.2390    7.4200   -0.3850 C.3   118  LEU118      0.0270
     76  CG        23.9190    8.4100    0.5840 C.3   118  LEU118      0.0019
     77  CD1       22.8600    9.0530    1.5000 C.3   118  LEU118      0.0001
     78  CD2       24.9810    7.7080    1.4070 C.3   118  LEU118      0.0001
     79  N         25.6780    3.7320   -4.2210 N.3   121  LEU121     -0.1245
     80  CA        26.4140    2.7950   -3.3730 C.3   121  LEU121      0.1561
     81  C         25.5020    1.6100   -2.9680 C.2   121  LEU121      0.2260
     82  O         25.8740    0.4390   -2.9630 O.2   121  LEU121     -0.2867
     83  CB        26.9560    3.5420   -2.1260 C.3   121  LEU121      0.0270
     84  CG        28.0920    4.5400   -2.4610 C.3   121  LEU121      0.0019
     85  CD1       28.3440    5.5490   -1.2970 C.3   121  LEU121      0.0001
     86  CD2       29.4070    3.8480   -2.8350 C.3   121  LEU121      0.0001
     87  N         30.5910   10.9580   -6.2060 N.3   133  LEU133     -0.1245
     88  CA        31.0960   11.4710   -4.9100 C.3   133  LEU133      0.1561
     89  C         32.0400   12.6600   -5.0850 C.2   133  LEU133      0.2260
     90  O         32.0450   13.5800   -4.2640 O.2   133  LEU133     -0.2867
     91  CB        31.8200   10.3500   -4.0760 C.3   133  LEU133      0.0270
     92  CG        30.8930    9.3090   -3.3620 C.3   133  LEU133      0.0019
     93  CD1       31.7010    8.0820   -2.9000 C.3   133  LEU133      0.0001
     94  CD2       30.1810    9.9170   -2.1560 C.3   133  LEU133      0.0001
     95  N         35.6500    3.1920   -1.3520 N.3   153  PHE153     -0.1241
     96  CA        34.3240    2.7690   -1.7590 C.3   153  PHE153      0.1605
     97  C         34.3880    2.1070   -3.1210 C.2   153  PHE153      0.2264
     98  O         33.6330    1.1880   -3.4400 O.2   153  PHE153     -0.2867
     99  CB        33.3910    3.9870   -1.9090 C.3   153  PHE153      0.0534
    100  CG        32.7840    4.5180   -0.6220 C.ar  153  PHE153     -0.0203
    101  CD1       31.9530    3.7240    0.1740 C.ar  153  PHE153     -0.0042
    102  CD2       32.9990    5.8430   -0.2290 C.ar  153  PHE153     -0.0042
    103  CE1       31.3350    4.2330    1.3250 C.ar  153  PHE153     -0.0003
    104  CE2       32.4110    6.3620    0.9270 C.ar  153  PHE153     -0.0003
    105  CZ        31.5920    5.5480    1.7110 C.ar  153  PHE153     -0.0000
@<TRIPOS>BOND
     1    87    88    1
     2    89    88    1
     3    89    90    2
     4    88    91    1
     5    79    80    1
     6    91    92    1
     7    98    97    2
     8    80    81    1
     9    80    83    1
    10    92    93    1
    11    92    94    1
    12    97    96    1
    13    81    82    2
    14    86    84    1
    15    84    83    1
    16    84    85    1
    17    71    72    1
    18    73    74    2
    19    73    72    1
    20    99    96    1
    21    99   100    1
    22    96    95    1
    23    72    75    1
    24   100   102   ar
    25   100   101   ar
    26    75    76    1
    27   102   104   ar
    28   101   103   ar
    29    76    78    1
    30    76    77    1
    31    43    41    1
    32   104   105   ar
    33   103   105   ar
    34    22    21    1
    35    56    55    1
    36    23    21    1
    37    55    54    1
    38    41    40    1
    39    41    42    1
    40    21    18    1
    41    37    36    1
    42    37    40    1
    43    37    38    1
    44    67    66    2
    45    18    19    1
    46    18    17    1
    47    20    19    2
    48    38    39    2
    49    54    53    1
    50    19    24   am
    51    66    65    1
    52    69    68    1
    53    65    68    1
    54    65    64    1
    55    24    25    1
    56    53    50    1
    57    44    45    1
    58    68    70    1
    59    45    48    1
    60    45    46    1
    61    16    14    1
    62    25    26    1
    63    25    28    1
    64    27    26    2
    65    12    11    2
    66    50    49    1
    67    50    51    1
    68    10     9    1
    69    10    11    1
    70    10    13    1
    71    46    47    2
    72    14    13    1
    73    14    15    1
    74    28    29    1
    75    51    52    2
    76    51    57   am
    77    30    29   ar
    78    30    32   ar
    79    29    31   ar
    80    57    58    1
    81    63    61    1
    82    32    34   ar
    83    31    33   ar
    84    58    61    1
    85    58    59    1
    86    34    33   ar
    87    34    35    1
    88    61    62    1
    89     7     5    1
    90     8     6    1
    91    59    60    2
    92     6     5    1
    93     4     3    2
    94     5     2    1
    95     2     3    1
    96     2     1    1
