@<TRIPOS>MOLECULE
tmp/1a05A00.pdb
 110 100 0 0 0
SMALL
GASTEIGER

@<TRIPOS>ATOM
      1  N         17.7690   24.8890   50.0760 N.3    73  VAL73      -0.1245
      2  CA        18.6030   23.7640   49.6680 C.3    73  VAL73       0.1561
      3  C         19.0630   23.9860   48.2220 C.2    73  VAL73       0.2260
      4  O         18.3260   24.5560   47.4090 O.2    73  VAL73      -0.2867
      5  CB        17.8570   22.3960   49.7850 C.3    73  VAL73       0.0252
      6  CG1       17.5620   22.0690   51.2440 C.3    73  VAL73       0.0019
      7  CG2       16.5680   22.4140   48.9890 C.3    73  VAL73       0.0019
      8  N         18.1910   18.9650   46.5790 N.3    88  GLU88      -0.1245
      9  CA        16.7300   19.0390   46.5140 C.3    88  GLU88       0.1567
     10  C         16.0120   17.7080   46.7160 C.2    88  GLU88       0.2260
     11  O         14.8030   17.6880   46.9320 O.2    88  GLU88      -0.2867
     12  CB        16.2300   19.7500   45.2450 C.3    88  GLU88       0.0388
     13  CG        16.8130   19.2710   43.9260 C.3    88  GLU88       0.1160
     14  CD        18.2510   19.7180   43.7220 C.2    88  GLU88       0.3649
     15  OE1       18.5310   20.9300   43.8330 O.co2  88  GLU88      -0.2457
     16  OE2       19.1060   18.8560   43.4550 O.co2  88  GLU88      -0.2457
     17  N         14.6810   17.7310   50.1610 N.3    91  LEU91      -0.1231
     18  CA        13.4690   18.5380   50.2480 C.3    91  LEU91       0.1693
     19  C         12.2700   17.7170   49.7890 C.2    91  LEU91       0.2591
     20  O         11.2030   17.7520   50.4080 O.2    91  LEU91      -0.2718
     21  CB        13.6130   19.7840   49.3680 C.3    91  LEU91       0.0284
     22  CG        12.3820   20.6470   49.1050 C.3    91  LEU91       0.0019
     23  CD1       11.8390   21.2540   50.3970 C.3    91  LEU91       0.0001
     24  CD2       12.7450   21.7260   48.1050 C.3    91  LEU91       0.0001
     25  N         12.4580   16.9730   48.6980 N.am   92  LEU92      -0.1980
     26  CA        11.4020   16.1310   48.1360 C.3    92  LEU92       0.1596
     27  C         11.0540   14.9760   49.0740 C.2    92  LEU92       0.2287
     28  O          9.8920   14.5780   49.1730 O.2    92  LEU92      -0.2864
     29  CB        11.8090   15.6200   46.7390 C.3    92  LEU92       0.0297
     30  CG        11.8300   16.7190   45.6590 C.3    92  LEU92       0.0022
     31  CD1       12.5400   16.2680   44.3870 C.3    92  LEU92       0.0001
     32  CD2       10.4110   17.1630   45.3670 C.3    92  LEU92       0.0001
     33  N          8.9450   16.4300   52.1070 N.3    95  ARG95      -0.1245
     34  CA         7.5780   16.6230   51.6410 C.3    95  ARG95       0.1563
     35  C          6.8590   15.2830   51.5570 C.2    95  ARG95       0.2260
     36  O          5.7910   15.1040   52.1370 O.2    95  ARG95      -0.2867
     37  CB         7.5780   17.2620   50.2480 C.3    95  ARG95       0.0307
     38  CG         8.1370   18.6620   50.1760 C.3    95  ARG95       0.0489
     39  CD         8.2100   19.1500   48.7180 C.3    95  ARG95       0.2205
     40  NE         8.6090   20.5520   48.6140 N.pl3  95  ARG95      -0.0865
     41  CZ         8.7430   21.2240   47.4720 C.cat  95  ARG95       0.5346
     42  NH1        8.5100   20.6340   46.3090 N.pl3  95  ARG95       0.1354
     43  NH2        9.1200   22.4940   47.4950 N.pl3  95  ARG95       0.1354
     44  N          1.0950   28.8840   48.3460 N.3   105  ARG105     -0.1245
     45  CA         1.9860   29.9690   47.9830 C.3   105  ARG105      0.1563
     46  C          1.1910   31.2200   47.6190 C.2   105  ARG105      0.2260
     47  O          0.7140   31.3600   46.4870 O.2   105  ARG105     -0.2867
     48  CB         2.9020   29.5490   46.8350 C.3   105  ARG105      0.0307
     49  CG         3.8910   28.4610   47.2050 C.3   105  ARG105      0.0489
     50  CD         4.7770   28.0900   46.0350 C.3   105  ARG105      0.2205
     51  NE         5.6920   27.0110   46.3820 N.pl3 105  ARG105     -0.0865
     52  CZ         6.8550   26.7770   45.7760 C.cat 105  ARG105      0.5346
     53  NH1        7.2640   27.5500   44.7740 N.pl3 105  ARG105      0.1354
     54  NH2        7.6230   25.7760   46.1860 N.pl3 105  ARG105      0.1354
     55  N         -0.9920   24.2470   45.3050 N.3   133  ARG133     -0.1245
     56  CA        -0.3350   23.2390   44.4910 C.3   133  ARG133      0.1563
     57  C         -0.2690   21.8950   45.2190 C.2   133  ARG133      0.2260
     58  O          0.0680   21.8530   46.4040 O.2   133  ARG133     -0.2867
     59  CB         1.0800   23.7490   44.1830 C.3   133  ARG133      0.0307
     60  CG         2.0780   22.7220   43.6870 C.3   133  ARG133      0.0489
     61  CD         3.5050   23.2800   43.7370 C.3   133  ARG133      0.2205
     62  NE         4.4840   22.2840   43.3080 N.pl3 133  ARG133     -0.0865
     63  CZ         5.8000   22.4170   43.4380 C.cat 133  ARG133      0.5346
     64  NH1        6.3250   23.5140   43.9840 N.pl3 133  ARG133      0.1354
     65  NH2        6.5960   21.4320   43.0430 N.pl3 133  ARG133      0.1354
     66  N          6.0420   13.8910   39.6000 N.3   140  TYR140     -0.1241
     67  CA         7.1370   14.1170   40.5440 C.3   140  TYR140      0.1605
     68  C          7.5010   12.8440   41.3170 C.2   140  TYR140      0.2264
     69  O          8.6810   12.5900   41.6060 O.2   140  TYR140     -0.2867
     70  CB         6.7140   15.1860   41.5590 C.3   140  TYR140      0.0534
     71  CG         7.1670   16.5940   41.2550 C.ar  140  TYR140     -0.0201
     72  CD1        6.8770   17.2070   40.0360 C.ar  140  TYR140     -0.0009
     73  CD2        7.8870   17.3200   42.2000 C.ar  140  TYR140     -0.0009
     74  CE1        7.2930   18.5040   39.7710 C.ar  140  TYR140      0.0417
     75  CE2        8.3100   18.6140   41.9420 C.ar  140  TYR140      0.0417
     76  CZ         8.0110   19.1990   40.7300 C.ar  140  TYR140      0.1957
     77  OH         8.4470   20.4720   40.4900 O.3   140  TYR140     -0.2866
     78  N          4.2700   24.1000   40.1050 N.3   246  ASP246     -0.1239
     79  CA         5.6630   24.5250   40.1600 C.3   246  ASP246      0.1674
     80  C          5.9130   25.6990   39.2090 C.2   246  ASP246      0.2266
     81  O          6.4950   26.7160   39.5850 O.2   246  ASP246     -0.2867
     82  CB         6.5660   23.3590   39.7640 C.3   246  ASP246      0.1410
     83  CG         8.0280   23.7020   39.8780 C.2   246  ASP246      0.3668
     84  OD1        8.3950   24.2920   40.9080 O.co2 246  ASP246     -0.2456
     85  OD2        8.8070   23.3900   38.9520 O.co2 246  ASP246     -0.2456
     86  N          5.8340   30.0560   40.1950 N.3   250  ASP250     -0.1239
     87  CA         7.0000   30.8780   39.9310 C.3   250  ASP250      0.1674
     88  C          6.6130   32.0500   39.0480 C.2   250  ASP250      0.2266
     89  O          7.1910   33.1300   39.1550 O.2   250  ASP250     -0.2867
     90  CB         8.1050   30.0500   39.2810 C.3   250  ASP250      0.1410
     91  CG         9.1500   29.5900   40.2840 C.2   250  ASP250      0.3668
     92  OD1        8.8120   29.4200   41.4780 O.co2 250  ASP250     -0.2456
     93  OD2       10.3180   29.4170   39.8850 O.co2 250  ASP250     -0.2456
     94  N          8.7570   27.2330   54.3350 N.3   275  GLU275     -0.1245
     95  CA         9.9880   27.6240   53.6690 C.3   275  GLU275      0.1567
     96  C          9.7400   28.7910   52.7420 C.2   275  GLU275      0.2260
     97  O          8.6020   29.0660   52.3630 O.2   275  GLU275     -0.2867
     98  CB        10.5180   26.4570   52.8150 C.3   275  GLU275      0.0388
     99  CG         9.6990   26.2150   51.5340 C.3   275  GLU275      0.1160
    100  CD        10.3030   25.1870   50.5900 C.2   275  GLU275      0.3649
    101  OE1       11.5430   25.1520   50.4280 O.co2 275  GLU275     -0.2457
    102  OE2        9.5250   24.4180   49.9890 O.co2 275  GLU275     -0.2457
    103  N         10.1400   30.7200   49.1220 N.3   277  ILE277     -0.1245
    104  CA        10.1410   30.1390   47.7780 C.3   277  ILE277      0.1561
    105  C         11.2430   30.6910   46.8520 C.2   277  ILE277      0.2260
    106  O         11.2990   30.3480   45.6690 O.2   277  ILE277     -0.2867
    107  CB         8.7310   30.2850   47.1160 C.3   277  ILE277      0.0252
    108  CG1        8.3210   31.7550   46.9750 C.3   277  ILE277      0.0019
    109  CG2        7.6840   29.5810   47.9600 C.3   277  ILE277      0.0019
    110  CD1        8.8370   32.4510   45.7360 C.3   277  ILE277      0.0001
@<TRIPOS>BOND
     1    85    83   ar
     2    88    89    2
     3    88    87    1
     4    80    81    2
     5    80    79    1
     6    90    87    1
     7    90    91    1
     8    66    67    1
     9    82    83    1
    10    82    79    1
    11    74    72   ar
    12    74    76   ar
    13    83    84   ar
    14    93    91   ar
    15    87    86    1
    16    72    71   ar
    17    78    79    1
    18    91    92   ar
    19    77    76    1
    20    67    68    1
    21    67    70    1
    22    76    75   ar
    23    71    70    1
    24    71    73   ar
    25    68    69    2
    26    75    73   ar
    27    65    63    1
    28    62    63    2
    29    62    61    1
    30    63    64    1
    31    16    14   ar
    32    60    61    1
    33    60    59    1
    34    14    15   ar
    35    14    13    1
    36    13    12    1
    37    59    56    1
    38    31    30    1
    39    56    57    1
    40    56    55    1
    41    53    52    1
    42    57    58    2
    43    12     9    1
    44    32    30    1
    45    30    29    1
    46   106   105    2
    47   110   108    1
    48    52    54    1
    49    52    51    2
    50    50    51    1
    51    50    49    1
    52    42    41    1
    53    47    46    2
    54     9     8    1
    55     9    10    1
    56    10    11    2
    57    29    26    1
    58    48    49    1
    59    48    45    1
    60   105   104    1
    61   108   107    1
    62   107   104    1
    63   107   109    1
    64     4     3    2
    65    41    43    1
    66    41    40    2
    67    46    45    1
    68   104   103    1
    69    45    44    1
    70    24    22    1
    71    26    25    1
    72    26    27    1
    73     3     2    1
    74    40    39    1
    75    25    19   am
    76    39    38    1
    77     7     5    1
    78    27    28    2
    79    22    21    1
    80    22    23    1
    81    21    18    1
    82     2     5    1
    83     2     1    1
    84     5     6    1
    85    19    18    1
    86    19    20    2
    87   102   100   ar
    88    17    18    1
    89    38    37    1
    90    37    34    1
    91   101   100   ar
    92   100    99    1
    93    99    98    1
    94    35    34    1
    95    35    36    2
    96    34    33    1
    97    97    96    2
    98    96    95    1
    99    98    95    1
   100    95    94    1
