@<TRIPOS>MOLECULE
tmp/1a07C00.pdb
 109 104 0 0 0
SMALL
GASTEIGER

@<TRIPOS>ATOM
      1  N         44.3640   -0.9940   30.2880 N.3    13  ARG13      -0.1245
      2  CA        45.1390   -1.3580   31.4810 C.3    13  ARG13       0.1563
      3  C         46.6150   -1.0230   31.2850 C.2    13  ARG13       0.2260
      4  O         47.2910   -0.5600   32.2060 O.2    13  ARG13      -0.2867
      5  CB        45.0480   -2.8590   31.7470 C.3    13  ARG13       0.0307
      6  CG        46.2170   -3.3720   32.5900 C.3    13  ARG13       0.0489
      7  CD        46.1610   -4.8760   32.8180 C.3    13  ARG13       0.2205
      8  NE        44.9890   -5.2710   33.5900 N.pl3  13  ARG13      -0.0865
      9  CZ        45.0450   -5.9180   34.7480 C.cat  13  ARG13       0.5346
     10  NH1       46.2200   -6.2820   35.2750 N.pl3  13  ARG13       0.1354
     11  NH2       43.9620   -6.2300   35.4650 N.pl3  13  ARG13       0.1354
     12  N         39.6440    4.3380   36.0700 N.3    33  ARG33      -0.1245
     13  CA        39.4170    4.2930   34.6530 C.3    33  ARG33       0.1563
     14  C         38.1450    3.4670   34.4810 C.2    33  ARG33       0.2260
     15  O         37.7090    2.7840   35.4120 O.2    33  ARG33      -0.2867
     16  CB        40.6410    3.6580   33.9890 C.3    33  ARG33       0.0307
     17  CG        41.1480    2.3660   34.6040 C.3    33  ARG33       0.0489
     18  CD        42.2700    1.8850   33.7360 C.3    33  ARG33       0.2205
     19  NE        42.7920    0.7100   34.3780 N.pl3  33  ARG33      -0.0865
     20  CZ        42.4080   -0.5110   33.9590 C.cat  33  ARG33       0.5346
     21  NH1       41.5560   -0.6590   32.9500 N.pl3  33  ARG33       0.1354
     22  NH2       42.7110   -1.6100   34.6490 N.pl3  33  ARG33       0.1354
     23  N         36.2750    0.1540   33.3570 N.3    35  SER35      -0.1217
     24  CA        36.9140   -1.1150   33.0230 C.3    35  SER35       0.1889
     25  C         36.7650   -1.4530   31.5690 C.2    35  SER35       0.2288
     26  O         35.7100   -1.2520   30.9730 O.2    35  SER35      -0.2866
     27  CB        36.3580   -2.2480   33.8520 C.3    35  SER35       0.2089
     28  OG        37.0870   -2.1320   35.0770 O.3    35  SER35      -0.2183
     29  N         37.7660    0.7470   37.4420 N.3    43  CYS43      -0.1235
     30  CA        38.8960    0.0320   37.9850 C.3    43  CYS43       0.1677
     31  C         39.8020    1.0700   38.6370 C.2    43  CYS43       0.2270
     32  O         40.0330    2.1460   38.0790 O.2    43  CYS43      -0.2867
     33  CB        39.5780   -0.7620   36.8270 C.3    43  CYS43       0.0956
     34  SG        41.1820   -1.4000   37.3700 S.3    43  CYS43      -0.0801
     35  N         48.8090   -2.2640   41.0370 N.3    58  LYS58      -0.1231
     36  CA        47.7830   -3.2300   41.4140 C.3    58  LYS58       0.1693
     37  C         46.5060   -2.7130   40.7830 C.2    58  LYS58       0.2592
     38  O         46.3660   -1.4940   40.5960 O.2    58  LYS58      -0.2718
     39  CB        47.5440   -3.2450   42.8830 C.3    58  LYS58       0.0285
     40  CG        48.7840   -3.5190   43.6990 C.3    58  LYS58       0.0035
     41  CD        49.2260   -4.9220   43.4680 C.3    58  LYS58       0.0206
     42  CE        50.5160   -5.2840   44.1770 C.3    58  LYS58       0.1093
     43  NZ        50.4180   -4.9440   45.5670 N.3    58  LYS58      -0.1314
     44  N         45.5180   -3.5430   40.4620 N.am   59  HIS59      -0.1962
     45  CA        44.2840   -3.0790   39.8650 C.3    59  HIS59       0.1787
     46  C         43.1740   -3.7500   40.6590 C.2    59  HIS59       0.2620
     47  O         43.1970   -4.9540   40.9330 O.2    59  HIS59      -0.2715
     48  CB        44.1350   -3.4700   38.3810 C.3    59  HIS59       0.0785
     49  CG        45.1740   -2.8710   37.4290 C.ar   59  HIS59       0.0821
     50  ND1       45.1790   -1.7440   36.7060 N.ar   59  HIS59      -0.2267
     51  CD2       46.3470   -3.5160   37.1310 C.ar   59  HIS59       0.1154
     52  CE1       46.2800   -1.6940   36.0080 C.ar   59  HIS59       0.1986
     53  NE2       46.9640   -2.7640   36.2750 N.ar   59  HIS59      -0.2212
     54  N         42.2360   -2.9230   41.0970 N.am   60  TYR60      -0.1960
     55  CA        41.1010   -3.3440   41.8700 C.3    60  TYR60       0.1771
     56  C         39.8810   -2.9350   41.0590 C.2    60  TYR60       0.2619
     57  O         39.7330   -1.8010   40.5810 O.2    60  TYR60      -0.2715
     58  CB        41.0500   -2.6390   43.2430 C.3    60  TYR60       0.0574
     59  CG        42.2920   -2.9070   44.0920 C.ar   60  TYR60      -0.0198
     60  CD1       43.3880   -2.0600   43.8920 C.ar   60  TYR60      -0.0009
     61  CD2       42.3640   -3.9430   45.0390 C.ar   60  TYR60      -0.0009
     62  CE1       44.5590   -2.2420   44.6300 C.ar   60  TYR60       0.0417
     63  CE2       43.5490   -4.1150   45.7790 C.ar   60  TYR60       0.0417
     64  CZ        44.6280   -3.2600   45.5610 C.ar   60  TYR60       0.1957
     65  OH        45.8060   -3.3160   46.2650 O.3    60  TYR60      -0.2866
     66  N         39.0200   -3.9330   40.8530 N.am   61  LYS61      -0.1977
     67  CA        37.7740   -3.7600   40.1410 C.3    61  LYS61       0.1596
     68  C         36.7970   -3.0530   41.1090 C.2    61  LYS61       0.2287
     69  O         36.7950   -3.3380   42.3150 O.2    61  LYS61      -0.2864
     70  CB        37.3360   -5.1310   39.7550 C.3    61  LYS61       0.0298
     71  CG        36.2900   -5.1410   38.7060 C.3    61  LYS61       0.0038
     72  CD        35.7970   -6.5630   38.6150 C.3    61  LYS61       0.0206
     73  CE        36.6250   -7.5380   37.7420 C.3    61  LYS61       0.1093
     74  NZ        36.3960   -7.3180   36.3070 N.3    61  LYS61      -0.1314
     75  N         34.6010   -2.3750   46.6480 N.3    72  ILE72      -0.1231
     76  CA        35.7630   -3.1720   46.2690 C.3    72  ILE72       0.1692
     77  C         35.6740   -4.3710   47.2440 C.2    72  ILE72       0.2592
     78  O         35.8920   -5.4990   46.8210 O.2    72  ILE72      -0.2718
     79  CB        37.0820   -2.3450   46.4340 C.3    72  ILE72       0.0266
     80  CG1       37.1220   -1.2420   45.4090 C.3    72  ILE72       0.0019
     81  CG2       38.2890   -3.2350   46.2460 C.3    72  ILE72       0.0020
     82  CD1       38.1880   -0.2100   45.6930 C.3    72  ILE72       0.0001
     83  N         35.3110   -4.2920   48.5240 N.am   73  THR73      -0.1953
     84  CA        35.1730   -5.4320   49.4190 C.3    73  THR73       0.1897
     85  C         33.8430   -5.4500   50.1560 C.2    73  THR73       0.2313
     86  O         33.0870   -4.4660   50.0890 O.2    73  THR73      -0.2863
     87  CB        36.3030   -5.4870   50.4800 C.3    73  THR73       0.1794
     88  OG1       36.0940   -4.4640   51.3940 O.3    73  THR73      -0.2208
     89  CG2       37.6740   -5.2020   49.9150 C.3    73  THR73       0.0378
     90  N         42.4930   -0.2350   54.1970 N.3    93  ASP93      -0.1225
     91  CA        41.5910   -1.3720   54.3500 C.3    93  ASP93       0.1805
     92  C         41.7260   -2.4900   53.3560 C.2    93  ASP93       0.2598
     93  O         40.8180   -2.8150   52.6040 O.2    93  ASP93      -0.2718
     94  CB        40.1580   -0.9140   54.3060 C.3    93  ASP93       0.1424
     95  CG        39.6810   -0.1610   55.5180 C.2    93  ASP93       0.3668
     96  OD1       40.4690    0.3440   56.3330 O.co2  93  ASP93      -0.2456
     97  OD2       38.4630   -0.1260   55.6650 O.co2  93  ASP93      -0.2456
     98  N         42.8830   -3.0700   53.2310 N.am   94  GLY94      -0.1942
     99  CA        43.0000   -4.1430   52.2640 C.3    94  GLY94       0.2014
    100  C         43.6360   -3.7210   50.9630 C.2    94  GLY94       0.2638
    101  O         44.1160   -4.5940   50.2200 O.2    94  GLY94      -0.2714
    102  N         43.6230   -2.4400   50.5430 N.am   95  LEU95      -0.1977
    103  CA        44.3210   -2.0820   49.3150 C.3    95  LEU95       0.1596
    104  C         45.7960   -2.0880   49.6920 C.2    95  LEU95       0.2287
    105  O         46.1810   -2.0420   50.8590 O.2    95  LEU95      -0.2864
    106  CB        43.9900   -0.6900   48.7850 C.3    95  LEU95       0.0297
    107  CG        42.5730   -0.2130   48.6000 C.3    95  LEU95       0.0022
    108  CD1       42.7450    1.0540   47.8530 C.3    95  LEU95       0.0001
    109  CD2       41.6540   -1.0570   47.7600 C.3    95  LEU95       0.0001
@<TRIPOS>BOND
     1     1     2    1
     2    26    25    2
     3     3     2    1
     4     3     4    2
     5     2     5    1
     6    25    24    1
     7     5     6    1
     8     6     7    1
     9     7     8    1
    10    21    20    1
    11    24    23    1
    12    24    27    1
    13     8     9    2
    14    18    19    1
    15    18    17    1
    16    27    28    1
    17    20    19    2
    18    20    22    1
    19    16    17    1
    20    16    13    1
    21    14    13    1
    22    14    15    2
    23    13    12    1
    24     9    10    1
    25     9    11    1
    26    52    53   ar
    27    52    50   ar
    28    53    51   ar
    29    74    73    1
    30    50    49   ar
    31    33    34    1
    32    33    30    1
    33    51    49   ar
    34    49    48    1
    35    29    30    1
    36    73    72    1
    37    30    31    1
    38    32    31    2
    39    48    45    1
    40    72    71    1
    41    71    70    1
    42    70    67    1
    43    45    44    1
    44    45    46    1
    45    67    66    1
    46    67    68    1
    47    44    37   am
    48    57    56    2
    49    38    37    2
    50    46    47    2
    51    46    54   am
    52    37    36    1
    53    66    56   am
    54    35    36    1
    55    56    55    1
    56    54    55    1
    57    68    69    2
    58    36    39    1
    59    55    58    1
    60    39    40    1
    61    58    59    1
    62    41    40    1
    63    41    42    1
    64    60    59   ar
    65    60    62   ar
    66    59    61   ar
    67    42    43    1
    68    62    64   ar
    69    61    63   ar
    70    80    82    1
    71    80    79    1
    72    64    63   ar
    73    64    65    1
    74    81    79    1
    75    76    79    1
    76    76    75    1
    77    76    77    1
    78    78    77    2
    79    77    83   am
    80   109   107    1
    81   108   107    1
    82    83    84    1
    83   107   106    1
    84   106   103    1
    85   103   104    1
    86   103   102    1
    87    84    85    1
    88    84    87    1
    89   104   105    2
    90    89    87    1
    91    86    85    2
    92   101   100    2
    93    87    88    1
    94   102   100   am
    95   100    99    1
    96    99    98    1
    97    93    92    2
    98    98    92   am
    99    92    91    1
   100    90    91    1
   101    94    91    1
   102    94    95    1
   103    95    97   ar
   104    95    96   ar
