@<TRIPOS>MOLECULE
tmp/1a08C01.pdb
 136 132 0 0 0
SMALL
GASTEIGER

@<TRIPOS>ATOM
      1  N         43.1910   -0.6530   30.9110 N.3    13  ARG13      -0.1245
      2  CA        44.1290   -1.0050   31.9570 C.3    13  ARG13       0.1563
      3  C         45.5610   -0.6660   31.5750 C.2    13  ARG13       0.2260
      4  O         46.3520   -0.2700   32.4270 O.2    13  ARG13      -0.2867
      5  CB        44.0730   -2.5150   32.2650 C.3    13  ARG13       0.0307
      6  CG        45.2320   -3.0800   33.0740 C.3    13  ARG13       0.0489
      7  CD        45.0920   -4.5510   33.2690 C.3    13  ARG13       0.2205
      8  NE        44.0060   -4.7290   34.2040 N.pl3  13  ARG13      -0.0865
      9  CZ        44.1530   -5.4520   35.3430 C.cat  13  ARG13       0.5346
     10  NH1       45.3060   -6.0850   35.6830 N.pl3  13  ARG13       0.1354
     11  NH2       43.1250   -5.4510   36.2070 N.pl3  13  ARG13       0.1354
     12  N         38.8390    4.8020   36.8430 N.3    33  ARG33      -0.1245
     13  CA        38.5180    4.7320   35.4430 C.3    33  ARG33       0.1563
     14  C         37.3530    3.7830   35.2130 C.2    33  ARG33       0.2260
     15  O         37.0430    2.9370   36.0660 O.2    33  ARG33      -0.2867
     16  CB        39.7040    4.2350   34.6590 C.3    33  ARG33       0.0307
     17  CG        40.4460    3.1600   35.3500 C.3    33  ARG33       0.0489
     18  CD        41.1080    2.4220   34.2380 C.3    33  ARG33       0.2205
     19  NE        41.7880    1.2030   34.7090 N.pl3  33  ARG33      -0.0865
     20  CZ        41.3480   -0.0170   34.3440 C.cat  33  ARG33       0.5346
     21  NH1       40.2660   -0.1600   33.5480 N.pl3  33  ARG33       0.1354
     22  NH2       42.0600   -1.1060   34.7000 N.pl3  33  ARG33       0.1354
     23  N         35.5560    0.3780   34.0680 N.3    35  SER35      -0.1202
     24  CA        36.0800   -0.9760   33.8960 C.3    35  SER35       0.2020
     25  C         35.9260   -1.3320   32.4110 C.2    35  SER35       0.2622
     26  O         34.7660   -1.3630   31.9940 O.2    35  SER35      -0.2717
     27  CB        35.2550   -1.8670   34.8130 C.3    35  SER35       0.2103
     28  OG        35.4740   -3.2430   34.5650 O.3    35  SER35      -0.2182
     29  N         36.9460   -1.6310   31.5740 N.am   36  GLU36      -0.1919
     30  CA        36.7200   -1.9300   30.1540 C.3    36  GLU36       0.1949
     31  C         36.1300   -3.3230   29.8940 C.2    36  GLU36       0.2659
     32  O         35.4100   -3.6260   28.9390 O.2    36  GLU36      -0.2711
     33  CB        38.0610   -1.7290   29.4010 C.2    36  GLU36       0.0111
     34  CG        39.2900   -2.5340   29.8950 C.2    36  GLU36       0.0838
     35  CD        40.6080   -2.4370   29.0830 C.2    36  GLU36       0.3877
     36  OE1       40.5980   -2.0430   27.8950 O.co2  36  GLU36      -0.2406
     37  OE2       41.6790   -2.7410   29.6490 O.co2  36  GLU36      -0.2406
     38  N         36.4560   -4.1940   30.8230 N.am   37  THR37      -0.1934
     39  CA        35.9850   -5.5500   30.7170 C.3    37  THR37       0.2028
     40  C         34.5280   -5.5200   31.1670 C.2    37  THR37       0.2642
     41  O         33.5770   -5.5480   30.3770 O.2    37  THR37      -0.2714
     42  CB        36.9620   -6.4160   31.5860 C.3    37  THR37       0.1808
     43  OG1       38.2710   -6.1450   31.0540 O.3    37  THR37      -0.2208
     44  CG2       36.6970   -7.9110   31.5540 C.3    37  THR37       0.0379
     45  N         34.3870   -5.2460   32.4560 N.am   38  THR38      -0.1950
     46  CA        33.0710   -5.3710   33.0090 C.3    38  THR38       0.1897
     47  C         32.2780   -4.0660   32.8810 C.2    38  THR38       0.2313
     48  O         32.5170   -3.0650   33.5830 O.2    38  THR38      -0.2863
     49  CB        33.2940   -5.8130   34.4330 C.3    38  THR38       0.1794
     50  OG1       34.3120   -6.8630   34.4470 O.3    38  THR38      -0.2208
     51  CG2       31.9380   -6.1960   35.0520 C.3    38  THR38       0.0378
     52  N         33.7520    0.1300   37.7690 N.3    42  TYR42      -0.1227
     53  CA        34.8450    1.0570   37.7110 C.3    42  TYR42       0.1736
     54  C         36.0330    0.3050   38.2240 C.2    42  TYR42       0.2595
     55  O         35.9250   -0.8710   38.6120 O.2    42  TYR42      -0.2718
     56  CB        34.5620    2.2420   38.5690 C.3    42  TYR42       0.0548
     57  CG        33.3990    3.0220   38.0010 C.ar   42  TYR42      -0.0200
     58  CD1       33.5800    3.8650   36.8960 C.ar   42  TYR42      -0.0009
     59  CD2       32.1730    2.9200   38.6170 C.ar   42  TYR42      -0.0009
     60  CE1       32.5280    4.6240   36.4070 C.ar   42  TYR42       0.0417
     61  CE2       31.1150    3.6810   38.1360 C.ar   42  TYR42       0.0417
     62  CZ        31.3050    4.5240   37.0500 C.ar   42  TYR42       0.1957
     63  OH        30.2660    5.3350   36.6660 O.3    42  TYR42      -0.2866
     64  N         37.1560    0.9930   38.2000 N.am   43  CYS43      -0.1970
     65  CA        38.3760    0.3860   38.6760 C.3    43  CYS43       0.1712
     66  C         39.2550    1.4260   39.3460 C.2    43  CYS43       0.2296
     67  O         39.3870    2.5130   38.7880 O.2    43  CYS43      -0.2864
     68  CB        39.1060   -0.2070   37.5010 C.3    43  CYS43       0.0983
     69  SG        40.6350   -1.0160   37.9800 S.3    43  CYS43      -0.0798
     70  N         48.2410   -1.8080   41.1030 N.3    58  LYS58      -0.1231
     71  CA        47.2500   -2.7460   41.6140 C.3    58  LYS58       0.1693
     72  C         45.9240   -2.2260   41.0530 C.2    58  LYS58       0.2592
     73  O         45.6950   -1.0100   40.9740 O.2    58  LYS58      -0.2718
     74  CB        47.1140   -2.6790   43.0990 C.3    58  LYS58       0.0285
     75  CG        48.3330   -2.8480   43.9200 C.3    58  LYS58       0.0035
     76  CD        48.6260   -4.3050   43.9800 C.3    58  LYS58       0.0206
     77  CE        49.6070   -4.5850   45.1020 C.3    58  LYS58       0.1093
     78  NZ        50.8040   -3.7720   45.0210 N.3    58  LYS58      -0.1314
     79  N         44.9990   -3.1240   40.7060 N.am   59  HIS59      -0.1962
     80  CA        43.7100   -2.7930   40.1200 C.3    59  HIS59       0.1787
     81  C         42.5510   -3.3300   40.9830 C.2    59  HIS59       0.2620
     82  O         42.4410   -4.5300   41.2060 O.2    59  HIS59      -0.2715
     83  CB        43.6530   -3.3880   38.7290 C.3    59  HIS59       0.0785
     84  CG        44.5970   -2.7060   37.7470 C.ar   59  HIS59       0.0821
     85  ND1       44.3840   -1.5480   37.1390 N.ar   59  HIS59      -0.2267
     86  CD2       45.8240   -3.1710   37.3490 C.ar   59  HIS59       0.1154
     87  CE1       45.4160   -1.2710   36.3920 C.ar   59  HIS59       0.1986
     88  NE2       46.2620   -2.2540   36.5320 N.ar   59  HIS59      -0.2212
     89  N         41.6390   -2.4770   41.4300 N.am   60  TYR60      -0.1960
     90  CA        40.5570   -2.8570   42.2800 C.3    60  TYR60       0.1771
     91  C         39.2470   -2.5380   41.6190 C.2    60  TYR60       0.2619
     92  O         38.9530   -1.3500   41.3780 O.2    60  TYR60      -0.2715
     93  CB        40.6280   -2.1080   43.5790 C.3    60  TYR60       0.0574
     94  CG        41.8740   -2.4020   44.3610 C.ar   60  TYR60      -0.0198
     95  CD1       41.9180   -3.5140   45.1900 C.ar   60  TYR60      -0.0009
     96  CD2       42.9730   -1.5580   44.2300 C.ar   60  TYR60      -0.0009
     97  CE1       43.0790   -3.7490   45.9280 C.ar   60  TYR60       0.0417
     98  CE2       44.1280   -1.7950   44.9650 C.ar   60  TYR60       0.0417
     99  CZ        44.1690   -2.8960   45.7940 C.ar   60  TYR60       0.1957
    100  OH        45.2790   -3.0470   46.5690 O.3    60  TYR60      -0.2866
    101  N         38.4930   -3.6010   41.2990 N.am   61  LYS61      -0.1977
    102  CA        37.2010   -3.4180   40.6420 C.3    61  LYS61       0.1596
    103  C         36.3060   -2.8150   41.6920 C.2    61  LYS61       0.2287
    104  O         36.4140   -3.2050   42.8470 O.2    61  LYS61      -0.2864
    105  CB        36.6520   -4.7490   40.1350 C.3    61  LYS61       0.0298
    106  CG        35.3790   -4.5300   39.3360 C.3    61  LYS61       0.0038
    107  CD        34.7800   -5.8120   38.8080 C.3    61  LYS61       0.0206
    108  CE        35.7290   -6.3440   37.7560 C.3    61  LYS61       0.1093
    109  NZ        35.4030   -7.6220   37.1290 N.3    61  LYS61      -0.1314
    110  N         34.2180   -2.0320   47.1440 N.3    72  ILE72      -0.1231
    111  CA        35.3930   -2.8210   46.7420 C.3    72  ILE72       0.1692
    112  C         35.2670   -4.0690   47.6260 C.2    72  ILE72       0.2592
    113  O         35.3520   -5.1680   47.1090 O.2    72  ILE72      -0.2718
    114  CB        36.7230   -2.0730   47.0190 C.3    72  ILE72       0.0266
    115  CG1       36.8020   -0.9230   46.0370 C.3    72  ILE72       0.0019
    116  CG2       37.9330   -2.9400   46.7490 C.3    72  ILE72       0.0020
    117  CD1       37.9710    0.0760   46.0890 C.3    72  ILE72       0.0001
    118  N         34.8960   -3.9840   48.9260 N.am   73  THR73      -0.1953
    119  CA        34.7870   -5.1430   49.7950 C.3    73  THR73       0.1897
    120  C         33.4780   -5.0920   50.5780 C.2    73  THR73       0.2313
    121  O         32.6560   -4.1740   50.4330 O.2    73  THR73      -0.2863
    122  CB        35.9470   -5.2140   50.7880 C.3    73  THR73       0.1794
    123  OG1       35.7070   -4.2670   51.8270 O.3    73  THR73      -0.2208
    124  CG2       37.2830   -4.9430   50.0910 C.3    73  THR73       0.0378
    125  N         42.6450   -2.8730   53.4070 N.3    94  GLY94      -0.1210
    126  CA        42.7970   -3.9820   52.4430 C.3    94  GLY94       0.1956
    127  C         43.5290   -3.5060   51.1880 C.2    94  GLY94       0.2611
    128  O         44.1230   -4.3110   50.4530 O.2    94  GLY94      -0.2717
    129  N         43.4620   -2.2620   50.8230 N.am   95  LEU95      -0.1979
    130  CA        44.2220   -1.8440   49.6580 C.3    95  LEU95       0.1596
    131  C         45.7150   -1.8370   50.0030 C.2    95  LEU95       0.2287
    132  O         46.1050   -1.6830   51.1650 O.2    95  LEU95      -0.2864
    133  CB        43.7720   -0.4670   49.2310 C.3    95  LEU95       0.0297
    134  CG        42.3170   -0.1830   49.1350 C.3    95  LEU95       0.0022
    135  CD1       42.3000    1.2540   48.6390 C.3    95  LEU95       0.0001
    136  CD2       41.5210   -1.1710   48.3050 C.3    95  LEU95       0.0001
@<TRIPOS>BOND
     1    36    35   ar
     2    32    31    2
     3    35    37   ar
     4    35    34    1
     5    33    34    2
     6    33    30    1
     7    31    30    1
     8    31    38   am
     9    30    29    1
    10    41    40    2
    11    39    38    1
    12    39    40    1
    13    39    42    1
    14     1     2    1
    15    43    42    1
    16    40    45   am
    17    44    42    1
    18    29    25   am
    19     3     2    1
    20     3     4    2
    21     2     5    1
    22    26    25    2
    23     5     6    1
    24    25    24    1
    25    45    46    1
    26    47    46    1
    27    47    48    2
    28    46    49    1
    29     6     7    1
    30     7     8    1
    31    21    20    1
    32    24    23    1
    33    24    27    1
    34     8     9    2
    35    18    19    1
    36    18    17    1
    37    20    22    1
    38    20    19    2
    39    49    50    1
    40    49    51    1
    41    28    27    1
    42    16    17    1
    43    16    13    1
    44    14    13    1
    45    14    15    2
    46     9    10    1
    47     9    11    1
    48    13    12    1
    49    87    88   ar
    50    87    85   ar
    51    60    58   ar
    52    60    62   ar
    53    88    86   ar
    54    63    62    1
    55    58    57   ar
    56    62    61   ar
    57   109   108    1
    58    85    84   ar
    59    86    84   ar
    60    68    69    1
    61    68    65    1
    62    53    52    1
    63    53    54    1
    64    53    56    1
    65    84    83    1
    66   108   107    1
    67    57    56    1
    68    57    59   ar
    69    61    59   ar
    70    64    54   am
    71    64    65    1
    72    54    55    2
    73    65    66    1
    74    83    80    1
    75    67    66    2
    76   107   106    1
    77   106   105    1
    78    80    79    1
    79    80    81    1
    80   105   102    1
    81   102   101    1
    82   102   103    1
    83    79    72   am
    84    73    72    2
    85    81    82    2
    86    81    89   am
    87    72    71    1
    88    70    71    1
    89   101    91   am
    90    92    91    2
    91    89    90    1
    92    71    74    1
    93    91    90    1
    94   103   104    2
    95    90    93    1
    96    74    75    1
    97    93    94    1
    98    75    76    1
    99    76    77    1
   100    96    94   ar
   101    96    98   ar
   102    94    95   ar
   103    98    99   ar
   104    78    77    1
   105    95    97   ar
   106    99    97   ar
   107    99   100    1
   108   115   117    1
   109   115   114    1
   110   111   114    1
   111   111   110    1
   112   111   112    1
   113   116   114    1
   114   113   112    2
   115   112   118   am
   116   136   134    1
   117   135   134    1
   118   118   119    1
   119   134   133    1
   120   133   130    1
   121   130   131    1
   122   130   129    1
   123   119   120    1
   124   119   122    1
   125   131   132    2
   126   124   122    1
   127   121   120    2
   128   128   127    2
   129   122   123    1
   130   129   127   am
   131   127   126    1
   132   126   125    1
