@<TRIPOS>MOLECULE
tmp/1a09C00.pdb
 125 120 0 0 0
SMALL
GASTEIGER

@<TRIPOS>ATOM
      1  N         43.5550   -0.6480   30.0070 N.3    11  ARG11      -0.1245
      2  CA        44.4140   -1.0070   31.1240 C.3    11  ARG11       0.1563
      3  C         45.8420   -0.5880   30.8100 C.2    11  ARG11       0.2260
      4  O         46.5210    0.0210   31.6500 O.2    11  ARG11      -0.2867
      5  CB        44.3530   -2.5430   31.4050 C.3    11  ARG11       0.0307
      6  CG        45.4670   -3.0210   32.3570 C.3    11  ARG11       0.0489
      7  CD        45.6850   -4.5230   32.5680 C.3    11  ARG11       0.2205
      8  NE        44.5440   -4.9690   33.3080 N.pl3  11  ARG11      -0.0865
      9  CZ        44.6290   -5.6500   34.4560 C.cat  11  ARG11       0.5346
     10  NH1       45.7900   -6.0120   35.0050 N.pl3  11  ARG11       0.1354
     11  NH2       43.4990   -5.8350   35.1550 N.pl3  11  ARG11       0.1354
     12  N         38.7400    4.3720   35.9660 N.3    31  ARG31      -0.1245
     13  CA        38.4750    4.2620   34.5370 C.3    31  ARG31       0.1563
     14  C         37.3940    3.2230   34.2610 C.2    31  ARG31       0.2260
     15  O         37.0820    2.4190   35.1350 O.2    31  ARG31      -0.2867
     16  CB        39.7430    3.8410   33.8090 C.3    31  ARG31       0.0307
     17  CG        40.3820    2.5240   34.2990 C.3    31  ARG31       0.0489
     18  CD        41.5380    2.1050   33.3920 C.3    31  ARG31       0.2205
     19  NE        42.2620    0.9310   33.8830 N.pl3  31  ARG31      -0.0865
     20  CZ        41.9040   -0.3340   33.5790 C.cat  31  ARG31       0.5346
     21  NH1       40.8540   -0.6100   32.8020 N.pl3  31  ARG31       0.1354
     22  NH2       42.6130   -1.3420   34.0870 N.pl3  31  ARG31       0.1354
     23  N         36.0250   -0.3360   32.9110 N.3    33  SER33      -0.1202
     24  CA        36.6970   -1.6160   32.7210 C.3    33  SER33       0.2020
     25  C         36.5700   -1.9390   31.2430 C.2    33  SER33       0.2619
     26  O         35.5310   -1.6610   30.6240 O.2    33  SER33      -0.2717
     27  CB        36.0400   -2.7500   33.5370 C.3    33  SER33       0.2103
     28  OG        36.6320   -4.0410   33.3520 O.3    33  SER33      -0.2182
     29  N         37.6680   -2.4580   30.7120 N.am   34  GLU34      -0.1965
     30  CA        37.7560   -2.9270   29.3460 C.3    34  GLU34       0.1733
     31  C         37.0750   -4.2700   29.2620 C.2    34  GLU34       0.2617
     32  O         36.3120   -4.5290   28.3350 O.2    34  GLU34      -0.2715
     33  CB        39.1640   -3.2020   28.8530 C.3    34  GLU34       0.0429
     34  CG        40.1260   -2.0630   28.6770 C.3    34  GLU34       0.1163
     35  CD        41.3360   -2.5660   27.9120 C.2    34  GLU34       0.3649
     36  OE1       41.2420   -2.7940   26.7140 O.co2  34  GLU34      -0.2457
     37  OE2       42.3830   -2.7530   28.5050 O.co2  34  GLU34      -0.2457
     38  N         37.3630   -5.1450   30.2150 N.am   35  THR35      -0.1951
     39  CA        36.8530   -6.4930   30.1450 C.3    35  THR35       0.1897
     40  C         35.4910   -6.7300   30.7670 C.2    35  THR35       0.2313
     41  O         34.8650   -7.7430   30.4500 O.2    35  THR35      -0.2863
     42  CB        37.9320   -7.3870   30.7420 C.3    35  THR35       0.1794
     43  OG1       38.1920   -6.9560   32.0720 O.3    35  THR35      -0.2208
     44  CG2       39.1680   -7.3860   29.8260 C.3    35  THR35       0.0378
     45  N         37.3560    0.3940   37.0340 N.3    41  CYS41      -0.1235
     46  CA        38.6330   -0.0680   37.5100 C.3    41  CYS41       0.1677
     47  C         39.3150    1.0470   38.2400 C.2    41  CYS41       0.2270
     48  O         39.3440    2.1680   37.7380 O.2    41  CYS41      -0.2867
     49  CB        39.5450   -0.4630   36.3950 C.3    41  CYS41       0.0956
     50  SG        38.9070   -2.0270   35.7720 S.3    41  CYS41      -0.0801
     51  N         48.3250   -2.0520   40.2840 N.3    56  LYS56      -0.1231
     52  CA        47.3270   -3.0430   40.6070 C.3    56  LYS56       0.1693
     53  C         45.9770   -2.5030   40.1630 C.2    56  LYS56       0.2592
     54  O         45.7740   -1.2840   40.1400 O.2    56  LYS56      -0.2718
     55  CB        47.3850   -3.3020   42.1070 C.3    56  LYS56       0.0285
     56  CG        48.6710   -4.0470   42.4390 C.3    56  LYS56       0.0035
     57  CD        48.7420   -4.6420   43.8340 C.3    56  LYS56       0.0206
     58  CE        49.9010   -5.6550   43.8920 C.3    56  LYS56       0.1093
     59  NZ        51.2140   -5.0420   43.9930 N.3    56  LYS56      -0.1314
     60  N         45.0420   -3.3610   39.7440 N.am   57  HIS57      -0.1962
     61  CA        43.7420   -2.9630   39.2120 C.3    57  HIS57       0.1787
     62  C         42.6780   -3.6660   40.0480 C.2    57  HIS57       0.2620
     63  O         42.7390   -4.8870   40.2800 O.2    57  HIS57      -0.2715
     64  CB        43.6020   -3.3840   37.7260 C.3    57  HIS57       0.0785
     65  CG        44.6780   -2.7670   36.8500 C.ar   57  HIS57       0.0821
     66  ND1       44.7000   -1.6040   36.2060 N.ar   57  HIS57      -0.2267
     67  CD2       45.8980   -3.3570   36.6590 C.ar   57  HIS57       0.1154
     68  CE1       45.8800   -1.4810   35.6480 C.ar   57  HIS57       0.1986
     69  NE2       46.5970   -2.5400   35.9280 N.ar   57  HIS57      -0.2212
     70  N         41.6980   -2.8750   40.4920 N.am   58  TYR58      -0.1960
     71  CA        40.6290   -3.3260   41.3670 C.3    58  TYR58       0.1771
     72  C         39.3620   -3.0670   40.5960 C.2    58  TYR58       0.2619
     73  O         39.1880   -1.9780   40.0530 O.2    58  TYR58      -0.2715
     74  CB        40.5990   -2.5120   42.7030 C.3    58  TYR58       0.0574
     75  CG        41.8790   -2.6740   43.5010 C.ar   58  TYR58      -0.0198
     76  CD1       41.9790   -3.7600   44.3740 C.ar   58  TYR58      -0.0009
     77  CD2       42.9810   -1.8390   43.2830 C.ar   58  TYR58      -0.0009
     78  CE1       43.1910   -4.0350   45.0180 C.ar   58  TYR58       0.0417
     79  CE2       44.1950   -2.1130   43.9250 C.ar   58  TYR58       0.0417
     80  CZ        44.2890   -3.2150   44.7880 C.ar   58  TYR58       0.1957
     81  OH        45.4770   -3.5190   45.4140 O.3    58  TYR58      -0.2866
     82  N         38.4740   -4.0370   40.4750 N.am   59  LYS59      -0.1977
     83  CA        37.2170   -3.8330   39.7910 C.3    59  LYS59       0.1596
     84  C         36.2470   -3.1730   40.7490 C.2    59  LYS59       0.2287
     85  O         36.1380   -3.5540   41.9180 O.2    59  LYS59      -0.2864
     86  CB        36.6050   -5.1520   39.3310 C.3    59  LYS59       0.0298
     87  CG        35.4370   -4.9170   38.3760 C.3    59  LYS59       0.0038
     88  CD        34.8290   -6.2290   37.8680 C.3    59  LYS59       0.0206
     89  CE        35.8160   -7.1970   37.1750 C.3    59  LYS59       0.1093
     90  NZ        36.4350   -6.6370   35.9870 N.3    59  LYS59      -0.1314
     91  N         34.1820   -2.5900   45.8630 N.3    70  ILE70      -0.1231
     92  CA        35.2840   -3.4310   45.4650 C.3    70  ILE70       0.1692
     93  C         35.1030   -4.6760   46.3680 C.2    70  ILE70       0.2592
     94  O         35.2110   -5.7960   45.8380 O.2    70  ILE70      -0.2718
     95  CB        36.6500   -2.7440   45.7400 C.3    70  ILE70       0.0266
     96  CG1       36.7050   -1.4410   44.9150 C.3    70  ILE70       0.0019
     97  CG2       37.8250   -3.7010   45.4120 C.3    70  ILE70       0.0020
     98  CD1       38.0010   -0.6160   45.0420 C.3    70  ILE70       0.0001
     99  N         34.8450   -4.5960   47.7020 N.am   71  THR71      -0.1953
    100  CA        34.6120   -5.7890   48.5030 C.3    71  THR71       0.1897
    101  C         33.3180   -5.6430   49.3030 C.2    71  THR71       0.2313
    102  O         32.6460   -4.5880   49.2690 O.2    71  THR71      -0.2863
    103  CB        35.7450   -6.0870   49.5180 C.3    71  THR71       0.1794
    104  OG1       35.6900   -5.0810   50.5200 O.3    71  THR71      -0.2208
    105  CG2       37.1070   -6.1430   48.8780 C.3    71  THR71       0.0378
    106  N         42.5550   -0.6110   53.5100 N.3    91  ASP91      -0.1225
    107  CA        41.7090   -1.7910   53.6960 C.3    91  ASP91       0.1805
    108  C         41.8380   -2.8970   52.6430 C.2    91  ASP91       0.2598
    109  O         40.8860   -3.1740   51.8710 O.2    91  ASP91      -0.2718
    110  CB        40.2270   -1.4110   53.7330 C.3    91  ASP91       0.1424
    111  CG        39.7220   -0.4570   54.7910 C.2    91  ASP91       0.3668
    112  OD1       40.4920    0.0330   55.6190 O.co2  91  ASP91      -0.2456
    113  OD2       38.5220   -0.2140   54.7660 O.co2  91  ASP91      -0.2456
    114  N         42.9630   -3.5740   52.5140 N.am   92  GLY92      -0.1942
    115  CA        42.9600   -4.6150   51.5020 C.3    92  GLY92       0.2014
    116  C         43.4090   -4.0970   50.1430 C.2    92  GLY92       0.2638
    117  O         43.8280   -4.9170   49.3240 O.2    92  GLY92      -0.2714
    118  N         43.3440   -2.8080   49.7950 N.am   93  LEU93      -0.1977
    119  CA        44.0210   -2.3120   48.5910 C.3    93  LEU93       0.1596
    120  C         45.5110   -2.2870   48.9060 C.2    93  LEU93       0.2287
    121  O         45.9050   -2.2800   50.0860 O.2    93  LEU93      -0.2864
    122  CB        43.6420   -0.8920   48.2260 C.3    93  LEU93       0.0297
    123  CG        42.1970   -0.4940   48.0670 C.3    93  LEU93       0.0022
    124  CD1       42.2080    0.9500   47.6060 C.3    93  LEU93       0.0001
    125  CD2       41.4660   -1.3490   47.0580 C.3    93  LEU93       0.0001
@<TRIPOS>BOND
     1    36    35   ar
     2    35    37   ar
     3    35    34    1
     4    32    31    2
     5    34    33    1
     6    33    30    1
     7    31    30    1
     8    31    38   am
     9    30    29    1
    10    44    42    1
    11     1     2    1
    12    39    38    1
    13    39    42    1
    14    39    40    1
    15    41    40    2
    16    26    25    2
    17    29    25   am
    18    42    43    1
    19     3     2    1
    20     3     4    2
    21     2     5    1
    22    25    24    1
    23     5     6    1
    24     6     7    1
    25     7     8    1
    26    24    23    1
    27    24    27    1
    28    21    20    1
    29     8     9    2
    30    28    27    1
    31    18    19    1
    32    18    17    1
    33    20    19    2
    34    20    22    1
    35    16    17    1
    36    16    13    1
    37    14    13    1
    38    14    15    2
    39     9    10    1
    40     9    11    1
    41    13    12    1
    42    68    69   ar
    43    68    66   ar
    44    50    49    1
    45    69    67   ar
    46    90    89    1
    47    66    65   ar
    48    49    46    1
    49    67    65   ar
    50    65    64    1
    51    45    46    1
    52    89    88    1
    53    46    47    1
    54    64    61    1
    55    48    47    2
    56    88    87    1
    57    87    86    1
    58    61    60    1
    59    61    62    1
    60    86    83    1
    61    60    53   am
    62    83    82    1
    63    83    84    1
    64    62    63    2
    65    62    70   am
    66    73    72    2
    67    54    53    2
    68    53    52    1
    69    51    52    1
    70    82    72   am
    71    70    71    1
    72    72    71    1
    73    52    55    1
    74    84    85    2
    75    71    74    1
    76    55    56    1
    77    56    57    1
    78    74    75    1
    79    77    75   ar
    80    77    79   ar
    81    75    76   ar
    82    57    58    1
    83    58    59    1
    84    79    80   ar
    85    76    78   ar
    86    80    78   ar
    87    80    81    1
    88    96    98    1
    89    96    95    1
    90    97    95    1
    91    92    95    1
    92    92    91    1
    93    92    93    1
    94    94    93    2
    95    93    99   am
    96   125   123    1
    97   124   123    1
    98    99   100    1
    99   123   122    1
   100   122   119    1
   101   100   101    1
   102   100   103    1
   103   119   120    1
   104   119   118    1
   105   105   103    1
   106   120   121    2
   107   102   101    2
   108   117   116    2
   109   103   104    1
   110   118   116   am
   111   116   115    1
   112   115   114    1
   113   109   108    2
   114   114   108   am
   115   108   107    1
   116   106   107    1
   117   107   110    1
   118   110   111    1
   119   113   111   ar
   120   111   112   ar
