@<TRIPOS>MOLECULE
tmp/1a0fA00.pdb
 152 147 0 0 0
SMALL
GASTEIGER

@<TRIPOS>ATOM
      1  N         29.0140  -38.3890   64.1460 N.3     9  ALA9       -0.1231
      2  CA        30.3310  -37.8040   64.1340 C.3     9  ALA9        0.1694
      3  C         31.2580  -38.7300   63.3230 C.2     9  ALA9        0.2592
      4  O         30.8220  -39.7360   62.8120 O.2     9  ALA9       -0.2718
      5  CB        30.8060  -37.6520   65.5960 C.3     9  ALA9        0.0304
      6  N         32.5420  -38.4210   63.2440 N.am   10  CYS10      -0.1970
      7  CA        33.5190  -39.2290   62.4930 C.3    10  CYS10       0.1712
      8  C         33.7810  -40.6470   63.0540 C.2    10  CYS10       0.2296
      9  O         34.3400  -41.5140   62.3560 O.2    10  CYS10      -0.2864
     10  CB        34.8340  -38.4640   62.3820 C.3    10  CYS10       0.0983
     11  SG        35.7860  -38.2540   63.9640 S.3    10  CYS10      -0.0798
     12  N         29.8600  -33.9550   73.5390 N.3    32  LEU32      -0.1245
     13  CA        30.9760  -33.1760   73.0530 C.3    32  LEU32       0.1561
     14  C         31.0260  -31.7000   73.4330 C.2    32  LEU32       0.2260
     15  O         32.0820  -31.0900   73.3260 O.2    32  LEU32      -0.2867
     16  CB        31.1800  -33.3800   71.5410 C.3    32  LEU32       0.0270
     17  CG        31.6810  -34.7520   71.0490 C.3    32  LEU32       0.0019
     18  CD1       31.9590  -34.6750   69.5550 C.3    32  LEU32       0.0001
     19  CD2       32.9430  -35.2040   71.7720 C.3    32  LEU32       0.0001
     20  N         31.9780  -32.3700   77.2660 N.3    35  LYS35      -0.1245
     21  CA        33.0420  -33.3380   77.5010 C.3    35  LYS35       0.1561
     22  C         32.7100  -34.2010   78.7010 C.2    35  LYS35       0.2260
     23  O         33.5490  -34.4100   79.5860 O.2    35  LYS35      -0.2867
     24  CB        34.3680  -32.6400   77.7460 C.3    35  LYS35       0.0271
     25  CG        35.2480  -32.6290   76.5480 C.3    35  LYS35       0.0035
     26  CD        34.6790  -31.7610   75.4460 C.3    35  LYS35       0.0206
     27  CE        35.6530  -31.7150   74.2810 C.3    35  LYS35       0.1093
     28  NZ        35.0880  -31.0140   73.1430 N.3    35  LYS35      -0.1314
     29  N         42.4780  -35.3740   74.7010 N.3    49  LYS49      -0.1231
     30  CA        42.2290  -34.5290   73.5290 C.3    49  LYS49       0.1693
     31  C         40.7590  -34.0970   73.3880 C.2    49  LYS49       0.2593
     32  O         40.4520  -33.1810   72.6380 O.2    49  LYS49      -0.2718
     33  CB        42.7440  -35.2150   72.2690 C.3    49  LYS49       0.0285
     34  CG        44.2440  -35.2850   72.2860 C.3    49  LYS49       0.0035
     35  CD        44.8290  -35.7910   70.9970 C.3    49  LYS49       0.0206
     36  CE        44.6740  -37.2590   70.8980 C.3    49  LYS49       0.1093
     37  NZ        45.4550  -37.7160   69.7520 N.3    49  LYS49      -0.1314
     38  N         39.8710  -34.7290   74.1620 N.am   50  GLY50      -0.1942
     39  CA        38.4510  -34.3980   74.1710 C.3    50  GLY50       0.2014
     40  C         37.6420  -34.6800   72.9350 C.2    50  GLY50       0.2639
     41  O         36.5420  -34.1990   72.7990 O.2    50  GLY50      -0.2714
     42  N         38.1670  -35.5140   72.0540 N.am   51  GLN51      -0.1963
     43  CA        37.5090  -35.8340   70.7980 C.3    51  GLN51       0.1733
     44  C         37.0700  -37.2870   70.6290 C.2    51  GLN51       0.2616
     45  O         37.6450  -38.2090   71.2330 O.2    51  GLN51      -0.2715
     46  CB        38.4890  -35.5840   69.6490 C.3    51  GLN51       0.0408
     47  CG        39.1180  -34.2360   69.5910 C.3    51  GLN51       0.0908
     48  CD        40.2280  -34.2370   68.5930 C.2    51  GLN51       0.2608
     49  OE1       40.9820  -35.1960   68.5110 O.2    51  GLN51      -0.2717
     50  NE2       40.3190  -33.1930   67.7990 N.am   51  GLN51      -0.0878
     51  N         36.0720  -37.4930   69.7700 N.am   52  VAL52      -0.1964
     52  CA        35.6500  -38.8400   69.4180 C.3    52  VAL52       0.1712
     53  C         36.2400  -39.0350   68.0210 C.2    52  VAL52       0.2458
     54  O         36.4510  -38.0900   67.2930 O.2    52  VAL52      -0.2730
     55  CB        34.1250  -39.0280   69.4440 C.3    52  VAL52       0.0289
     56  CG1       33.6440  -38.8230   70.8610 C.3    52  VAL52       0.0023
     57  CG2       33.4400  -38.1160   68.4740 C.3    52  VAL52       0.0023
     58  N         36.6320  -40.2470   67.6880 N.am   53  PRO53      -0.2727
     59  CA        36.5690  -41.4470   68.5100 C.3    53  PRO53       0.1402
     60  C         37.8030  -41.7220   69.3600 C.2    53  PRO53       0.2269
     61  O         38.8890  -41.1800   69.1150 O.2    53  PRO53      -0.2865
     62  CB        36.4590  -42.5380   67.4660 C.3    53  PRO53       0.0296
     63  CG        37.4170  -42.0240   66.4130 C.3    53  PRO53       0.0237
     64  CD        37.0350  -40.5630   66.3050 C.3    53  PRO53       0.0939
     65  N         42.4820  -41.2370   67.4430 N.3    65  GLU65      -0.1231
     66  CA        42.6670  -41.0090   66.0070 C.3    65  GLU65       0.1699
     67  C         42.0140  -42.1180   65.1910 C.2    65  GLU65       0.2593
     68  O         42.4850  -43.2510   65.1920 O.2    65  GLU65      -0.2718
     69  CB        44.1420  -40.9030   65.6340 C.3    65  GLU65       0.0402
     70  CG        44.9300  -39.8660   66.4500 C.3    65  GLU65       0.1161
     71  CD        44.4120  -38.4710   66.2670 C.2    65  GLU65       0.3649
     72  OE1       43.9130  -38.1320   65.1840 O.co2  65  GLU65      -0.2457
     73  OE2       44.4960  -37.6900   67.2140 O.co2  65  GLU65      -0.2457
     74  N         40.9400  -41.7730   64.4810 N.am   66  GLY66      -0.1942
     75  CA        40.2170  -42.7480   63.6760 C.3    66  GLY66       0.2014
     76  C         41.0590  -43.6450   62.7890 C.2    66  GLY66       0.2638
     77  O         40.9310  -44.8660   62.8300 O.2    66  GLY66      -0.2714
     78  N         41.9220  -43.0350   61.9850 N.am   67  VAL67      -0.1977
     79  CA        42.8060  -43.7680   61.0940 C.3    67  VAL67       0.1596
     80  C         43.6590  -44.7990   61.8520 C.2    67  VAL67       0.2287
     81  O         43.8610  -45.9020   61.3400 O.2    67  VAL67      -0.2864
     82  CB        43.6880  -42.7750   60.2800 C.3    67  VAL67       0.0276
     83  CG1       44.7860  -43.4840   59.5390 C.3    67  VAL67       0.0022
     84  CG2       42.8300  -42.0460   59.2970 C.3    67  VAL67       0.0022
     85  N         41.1150  -38.1170   55.6320 N.3   102  ALA102     -0.1245
     86  CA        41.3750  -37.4860   56.9270 C.3   102  ALA102      0.1562
     87  C         41.7270  -36.0210   56.8230 C.2   102  ALA102      0.2260
     88  O         41.1420  -35.1860   57.5110 O.2   102  ALA102     -0.2867
     89  CB        42.5220  -38.2220   57.6750 C.3   102  ALA102      0.0290
     90  N         37.5280  -34.7780   55.7430 N.3   106  HIS106     -0.1226
     91  CA        37.1330  -34.6600   57.1580 C.3   106  HIS106      0.1752
     92  C         37.5410  -33.2830   57.7490 C.2   106  HIS106      0.2595
     93  O         36.6840  -32.5000   58.1960 O.2   106  HIS106     -0.2718
     94  CB        37.7810  -35.8250   57.9510 C.3   106  HIS106      0.0759
     95  CG        37.4840  -35.8420   59.4280 C.ar  106  HIS106      0.0818
     96  ND1       37.9490  -36.8430   60.2570 N.ar  106  HIS106     -0.2268
     97  CD2       36.7720  -35.0060   60.2190 C.ar  106  HIS106      0.1154
     98  CE1       37.5290  -36.6260   61.4900 C.ar  106  HIS106      0.1986
     99  NE2       36.8120  -35.5180   61.4920 N.ar  106  HIS106     -0.2212
    100  N         38.8380  -32.9780   57.7180 N.am  107  LYS107     -0.1980
    101  CA        39.3190  -31.7150   58.2530 C.3   107  LYS107      0.1596
    102  C         38.8780  -30.5500   57.3860 C.2   107  LYS107      0.2287
    103  O         38.8260  -29.4070   57.8400 O.2   107  LYS107     -0.2864
    104  CB        40.8410  -31.7400   58.4500 C.3   107  LYS107      0.0298
    105  CG        41.2240  -32.5640   59.6650 C.3   107  LYS107      0.0038
    106  CD        40.7360  -31.8670   60.9200 C.3   107  LYS107      0.0206
    107  CE        40.2920  -32.8270   61.9710 C.3   107  LYS107      0.1093
    108  NZ        40.2080  -32.0690   63.2420 N.3   107  LYS107     -0.1314
    109  N         35.4330  -29.5570   58.8600 N.3   110  THR110     -0.1218
    110  CA        35.5200  -28.9860   60.1990 C.3   110  THR110      0.1862
    111  C         35.0860  -27.5350   60.4400 C.2   110  THR110      0.2287
    112  O         34.2710  -27.3020   61.3350 O.2   110  THR110     -0.2866
    113  CB        36.8970  -29.3070   60.8390 C.3   110  THR110      0.1770
    114  OG1       37.0280  -30.7360   60.9530 O.3   110  THR110     -0.2211
    115  CG2       36.9920  -28.7010   62.2270 C.3   110  THR110      0.0375
    116  N         31.4280  -26.7670   60.6180 N.3   113  PHE113     -0.1241
    117  CA        30.8230  -27.2160   61.8700 C.3   113  PHE113      0.1605
    118  C         31.2750  -26.4440   63.1220 C.2   113  PHE113      0.2264
    119  O         31.0290  -26.8650   64.2540 O.2   113  PHE113     -0.2867
    120  CB        31.1350  -28.7050   62.0600 C.3   113  PHE113      0.0534
    121  CG        30.6880  -29.5940   60.9060 C.ar  113  PHE113     -0.0203
    122  CD1       29.8020  -29.1350   59.9380 C.ar  113  PHE113     -0.0042
    123  CD2       31.1250  -30.9240   60.8270 C.ar  113  PHE113     -0.0042
    124  CE1       29.3520  -29.9850   58.9160 C.ar  113  PHE113     -0.0003
    125  CE2       30.6800  -31.7770   59.8120 C.ar  113  PHE113     -0.0003
    126  CZ        29.7920  -31.3030   58.8580 C.ar  113  PHE113     -0.0000
    127  N         35.3530  -44.9970   56.0520 N.3   157  TYR157     -0.1241
    128  CA        35.6760  -43.5920   56.3560 C.3   157  TYR157      0.1605
    129  C         35.1660  -42.6440   55.2810 C.2   157  TYR157      0.2264
    130  O         34.7130  -41.5600   55.6040 O.2   157  TYR157     -0.2867
    131  CB        37.1780  -43.4520   56.5070 C.3   157  TYR157      0.0534
    132  CG        37.6790  -42.2150   57.1870 C.ar  157  TYR157     -0.0201
    133  CD1       36.8260  -41.3650   57.8870 C.ar  157  TYR157     -0.0009
    134  CD2       39.0550  -41.9480   57.2040 C.ar  157  TYR157     -0.0009
    135  CE1       37.3330  -40.2790   58.6080 C.ar  157  TYR157      0.0417
    136  CE2       39.5730  -40.8720   57.9160 C.ar  157  TYR157      0.0417
    137  CZ        38.7150  -40.0470   58.6180 C.ar  157  TYR157      0.1957
    138  OH        39.2540  -39.0060   59.3420 O.3   157  TYR157     -0.2866
    139  N         28.1110  -36.1950   55.5740 N.3   164  TRP164     -0.1241
    140  CA        28.0540  -34.7510   55.8670 C.3   164  TRP164      0.1605
    141  C         27.8780  -33.8830   54.6180 C.2   164  TRP164      0.2264
    142  O         27.3750  -32.7800   54.7110 O.2   164  TRP164     -0.2867
    143  CB        29.3020  -34.2590   56.5830 C.3   164  TRP164      0.0550
    144  CG        29.6410  -35.0040   57.8130 C.ar  164  TRP164      0.0003
    145  CD1       28.8390  -35.8580   58.5160 C.ar  164  TRP164      0.0946
    146  CD2       30.9180  -35.0290   58.4500 C.ar  164  TRP164      0.0152
    147  NE1       29.5510  -36.4240   59.5340 N.ar  164  TRP164     -0.2442
    148  CE2       30.8310  -35.9340   59.5170 C.ar  164  TRP164      0.0810
    149  CE3       32.1370  -34.3810   58.2050 C.ar  164  TRP164      0.0012
    150  CZ2       31.9170  -36.2100   60.3470 C.ar  164  TRP164      0.0191
    151  CZ3       33.2130  -34.6530   59.0290 C.ar  164  TRP164      0.0001
    152  CH2       33.0960  -35.5610   60.0860 C.ar  164  TRP164      0.0015
@<TRIPOS>BOND
     1   141   142    2
     2   141   140    1
     3   129   130    2
     4   129   128    1
     5   139   140    1
     6    85    86    1
     7    90    91    1
     8   140   143    1
     9   127   128    1
    10   128   131    1
    11   131   132    1
    12   143   144    1
    13    87    86    1
    14    87    88    2
    15    86    89    1
    16    91    92    1
    17    91    94    1
    18   132   134   ar
    19   132   133   ar
    20   134   136   ar
    21   102   103    2
    22   102   101    1
    23   100    92   am
    24   100   101    1
    25    92    93    2
    26   144   146   ar
    27   144   145   ar
    28   133   135   ar
    29   136   137   ar
    30    94    95    1
    31   149   146   ar
    32   149   151   ar
    33   101   104    1
    34   104   105    1
    35   146   148   ar
    36   145   147   ar
    37   135   137   ar
    38   137   138    1
    39   126   124   ar
    40   126   125   ar
    41   109   110    1
    42   124   122   ar
    43   151   152   ar
    44    84    82    1
    45    95    97   ar
    46    95    96   ar
    47   148   147   ar
    48   148   150   ar
    49    83    82    1
    50   105   106    1
    51   125   123   ar
    52   122   121   ar
    53   152   150   ar
    54   110   111    1
    55   110   113    1
    56    97    99   ar
    57    96    98   ar
    58    82    79    1
    59   111   112    2
    60   116   117    1
    61   123   121   ar
    62   113   114    1
    63   113   115    1
    64   121   120    1
    65   106   107    1
    66    79    80    1
    67    79    78    1
    68    81    80    2
    69    98    99   ar
    70   117   120    1
    71   117   118    1
    72   107   108    1
    73    78    76   am
    74     9     8    2
    75    10     7    1
    76    10    11    1
    77     7     8    1
    78     7     6    1
    79    76    77    2
    80    76    75    1
    81     4     3    2
    82   118   119    2
    83     6     3   am
    84     3     2    1
    85    75    74    1
    86     2     1    1
    87     2     5    1
    88    74    67   am
    89    72    71   ar
    90    67    68    2
    91    67    66    1
    92    69    66    1
    93    69    70    1
    94    66    65    1
    95    71    70    1
    96    71    73   ar
    97    64    63    1
    98    64    58    1
    99    63    62    1
   100    54    53    2
   101    62    59    1
   102    58    53   am
   103    58    59    1
   104    50    48   am
   105    53    52    1
   106    57    55    1
   107    59    60    1
   108    49    48    2
   109    48    47    1
   110    61    60    2
   111    52    55    1
   112    52    51    1
   113    55    56    1
   114    18    17    1
   115    47    46    1
   116    46    43    1
   117    37    36    1
   118    51    44   am
   119    44    43    1
   120    44    45    2
   121    43    42    1
   122    36    35    1
   123    35    34    1
   124    17    16    1
   125    17    19    1
   126    16    13    1
   127    42    40   am
   128    33    34    1
   129    33    30    1
   130    32    31    2
   131    41    40    2
   132    40    39    1
   133    13    14    1
   134    13    12    1
   135    28    27    1
   136    15    14    2
   137    31    30    1
   138    31    38   am
   139    30    29    1
   140    38    39    1
   141    27    26    1
   142    26    25    1
   143    25    24    1
   144    20    21    1
   145    21    24    1
   146    21    22    1
   147    22    23    2
