@<TRIPOS>MOLECULE
tmp/1a0gB00.pdb
 170 159 0 0 0
SMALL
GASTEIGER

@<TRIPOS>ATOM
      1  N         32.9630    7.2250   32.1540 N.3    31  TYR31      -0.1241
      2  CA        32.5660    7.5930   33.5190 C.3    31  TYR31       0.1605
      3  C         31.2100    7.0280   33.9220 C.2    31  TYR31       0.2264
      4  O         30.4400    6.5630   33.0820 O.2    31  TYR31      -0.2867
      5  CB        32.5230    9.1380   33.6720 C.3    31  TYR31       0.0534
      6  CG        31.3330    9.8070   32.9970 C.ar   31  TYR31      -0.0201
      7  CD1       31.3400   10.0770   31.6290 C.ar   31  TYR31      -0.0009
      8  CD2       30.1640   10.0860   33.7110 C.ar   31  TYR31      -0.0009
      9  CE1       30.2200   10.5830   30.9920 C.ar   31  TYR31       0.0417
     10  CE2       29.0390   10.5980   33.0800 C.ar   31  TYR31       0.0417
     11  CZ        29.0660   10.8400   31.7200 C.ar   31  TYR31       0.1957
     12  OH        27.9430   11.3020   31.0590 O.3    31  TYR31      -0.2866
     13  N         28.1430    7.6400   37.3680 N.3    33  VAL33      -0.1245
     14  CA        27.6990    8.3600   38.5510 C.3    33  VAL33       0.1561
     15  C         26.7210    7.3980   39.2220 C.2    33  VAL33       0.2260
     16  O         25.8700    6.8280   38.5430 O.2    33  VAL33      -0.2867
     17  CB        26.9440    9.6540   38.1880 C.3    33  VAL33       0.0252
     18  CG1       26.3410   10.2720   39.4470 C.3    33  VAL33       0.0019
     19  CG2       27.8820   10.6490   37.5190 C.3    33  VAL33       0.0019
     20  N         27.8110   -1.1290   33.2300 N.3    50  ARG50      -0.1245
     21  CA        27.8730   -0.1600   32.1490 C.3    50  ARG50       0.1563
     22  C         29.2580    0.4690   32.0120 C.2    50  ARG50       0.2260
     23  O         29.6860    0.7700   30.9030 O.2    50  ARG50      -0.2867
     24  CB        26.7950    0.9000   32.2910 C.3    50  ARG50       0.0307
     25  CG        26.6550    1.7190   31.0360 C.3    50  ARG50       0.0489
     26  CD        25.4770    2.6150   31.1480 C.3    50  ARG50       0.2205
     27  NE        25.6480    3.5510   32.2450 N.pl3  50  ARG50      -0.0865
     28  CZ        24.7820    4.5060   32.5440 C.cat  50  ARG50       0.5346
     29  NH1       23.6800    4.6430   31.8310 N.pl3  50  ARG50       0.1354
     30  NH2       25.0520    5.3660   33.5120 N.pl3  50  ARG50       0.1354
     31  N         26.3730   16.5410   18.7710 N.3   138  ARG138     -0.1245
     32  CA        27.3650   15.6010   19.2780 C.3   138  ARG138      0.1563
     33  C         27.7910   14.5500   18.2590 C.2   138  ARG138      0.2260
     34  O         27.2090   14.4350   17.1800 O.2   138  ARG138     -0.2867
     35  CB        26.8170   14.8960   20.5220 C.3   138  ARG138      0.0307
     36  CG        26.5390   15.8160   21.6880 C.3   138  ARG138      0.0489
     37  CD        25.9500   15.0420   22.8390 C.3   138  ARG138      0.2205
     38  NE        24.6540   14.5170   22.4630 N.pl3 138  ARG138     -0.0865
     39  CZ        23.9590   13.6210   23.1470 C.cat 138  ARG138      0.5346
     40  NH1       24.4150   13.1180   24.2860 N.pl3 138  ARG138      0.1354
     41  NH2       22.8050   13.2090   22.6640 N.pl3 138  ARG138      0.1354
     42  N         26.8930    8.1870   20.8750 N.3   142  CYS142     -0.1235
     43  CA        26.3940    8.6640   22.1500 C.3   142  CYS142      0.1677
     44  C         26.0750    7.5340   23.1220 C.2   142  CYS142      0.2270
     45  O         25.9080    7.7660   24.3180 O.2   142  CYS142     -0.2867
     46  CB        25.2080    9.5850   21.9480 C.3   142  CYS142      0.0956
     47  SG        25.7110   11.1440   21.2720 S.3   142  CYS142     -0.0801
     48  N         29.4690    6.2390   27.1310 N.3   145  LYS145     -0.1245
     49  CA        29.5450    7.3200   28.1070 C.3   145  LYS145      0.1561
     50  C         31.0020    7.7050   28.3180 C.2   145  LYS145      0.2260
     51  O         31.6250    7.2710   29.2710 O.2   145  LYS145     -0.2867
     52  CB        28.9060    6.8970   29.4280 C.3   145  LYS145      0.0271
     53  CG        27.3920    6.8590   29.3960 C.3   145  LYS145      0.0035
     54  CD        26.8060    6.4730   30.7380 C.3   145  LYS145      0.0206
     55  CE        26.9340    7.5720   31.7820 C.3   145  LYS145      0.1093
     56  NZ        26.2660    8.8290   31.3320 N.3   145  LYS145     -0.1314
     57  N         32.5120   15.3750   26.5930 N.3   149  LEU149     -0.1245
     58  CA        31.2350   15.9640   26.9910 C.3   149  LEU149      0.1561
     59  C         31.1010   17.4310   26.6720 C.2   149  LEU149      0.2260
     60  O         30.2650   18.1190   27.2440 O.2   149  LEU149     -0.2867
     61  CB        31.0280   15.7430   28.4900 C.3   149  LEU149      0.0270
     62  CG        30.7940   14.2940   28.8990 C.3   149  LEU149      0.0019
     63  CD1       31.0270   14.1210   30.3830 C.3   149  LEU149      0.0001
     64  CD2       29.3810   13.8820   28.5250 C.3   149  LEU149      0.0001
     65  N         27.5530   18.5110   25.5170 N.3   152  ALA152     -0.1245
     66  CA        26.6530   18.5360   26.6810 C.3   152  ALA152      0.1562
     67  C         26.8970   19.7650   27.5410 C.2   152  ALA152      0.2260
     68  O         25.9690   20.3210   28.1280 O.2   152  ALA152     -0.2867
     69  CB        26.8300   17.2660   27.5190 C.3   152  ALA152      0.0290
     70  N         17.8530   12.8060   23.6940 N.3   177  GLU177     -0.1231
     71  CA        17.9570   12.7710   25.1440 C.3   177  GLU177      0.1699
     72  C         18.2910   14.1720   25.6110 C.2   177  GLU177      0.2593
     73  O         18.2840   15.1060   24.8020 O.2   177  GLU177     -0.2718
     74  CB        19.0490   11.7840   25.5490 C.3   177  GLU177      0.0402
     75  CG        20.4670   12.1660   25.1310 C.3   177  GLU177      0.1161
     76  CD        21.4860   11.0980   25.4870 C.2   177  GLU177      0.3649
     77  OE1       21.1980   10.2690   26.3640 O.co2 177  GLU177     -0.2457
     78  OE2       22.5750   11.0580   24.8840 O.co2 177  GLU177     -0.2457
     79  N         18.5160   14.3380   26.9100 N.am  178  GLY178     -0.1942
     80  CA        18.8760   15.6430   27.4350 C.3   178  GLY178      0.2014
     81  C         20.3850   15.6740   27.5800 C.2   178  GLY178      0.2640
     82  O         21.0300   14.6430   27.4100 O.2   178  GLY178     -0.2714
     83  N         20.9650   16.8170   27.9140 N.am  179  SER179     -0.1935
     84  CA        22.4170   16.8760   28.0580 C.3   179  SER179      0.2055
     85  C         22.9880   15.9610   29.1460 C.2   179  SER179      0.2644
     86  O         24.1550   15.5920   29.0880 O.2   179  SER179     -0.2714
     87  CB        22.8990   18.3080   28.2390 C.3   179  SER179      0.2130
     88  OG        22.2820   18.9340   29.3370 O.3   179  SER179     -0.2179
     89  N         22.1780   15.5830   30.1300 N.am  180  SER180     -0.1935
     90  CA        22.6370   14.6770   31.1830 C.3   180  SER180      0.2055
     91  C         21.4930   13.8090   31.6850 C.2   180  SER180      0.2644
     92  O         21.5080   13.3380   32.8240 O.2   180  SER180     -0.2714
     93  CB        23.2980   15.4410   32.3460 C.3   180  SER180      0.2130
     94  OG        22.4380   16.4160   32.9120 O.3   180  SER180     -0.2179
     95  N         20.5200   13.5650   30.8120 N.am  181  SER181     -0.1935
     96  CA        19.3640   12.7600   31.1690 C.3   181  SER181      0.2055
     97  C         18.7140   12.1390   29.9390 C.2   181  SER181      0.2643
     98  O         19.0790   12.4500   28.7950 O.2   181  SER181     -0.2714
     99  CB        18.3370   13.6460   31.8590 C.3   181  SER181      0.2130
    100  OG        17.9050   14.6830   30.9930 O.3   181  SER181     -0.2179
    101  N         17.7670   11.2420   30.1730 N.am  182  ASN182     -0.1971
    102  CA        17.0170   10.6340   29.0860 C.3   182  ASN182      0.1688
    103  C         15.6750   11.3340   29.1020 C.2   182  ASN182      0.2292
    104  O         15.2920   11.8930   30.1230 O.2   182  ASN182     -0.2864
    105  CB        16.8910    9.1260   29.2740 C.3   182  ASN182      0.1181
    106  CG        18.1810    8.4130   28.9740 C.2   182  ASN182      0.2629
    107  OD1       18.8270    7.8800   29.8700 O.2   182  ASN182     -0.2716
    108  ND2       18.5890    8.4280   27.7020 N.am  182  ASN182     -0.0877
    109  N         22.4760    7.5780   25.3550 N.3   201  ALA201     -0.1245
    110  CA        23.0630    6.7310   26.3770 C.3   201  ALA201      0.1562
    111  C         21.8970    5.9420   26.9700 C.2   201  ALA201      0.2260
    112  O         20.8120    6.4810   27.1750 O.2   201  ALA201     -0.2867
    113  CB        23.7190    7.5730   27.4390 C.3   201  ALA201      0.0290
    114  N         20.5380    5.0310   29.7690 N.3   203  GLY203     -0.1210
    115  CA        20.5550    5.3510   31.1850 C.3   203  GLY203      0.1956
    116  C         19.9780    4.2940   32.0990 C.2   203  GLY203      0.2612
    117  O         18.9760    3.6730   31.7800 O.2   203  GLY203     -0.2717
    118  N         20.6010    4.1090   33.2580 N.am  204  ILE204     -0.1965
    119  CA        20.1350    3.1190   34.2170 C.3   204  ILE204      0.1727
    120  C         18.7580    3.5180   34.7400 C.2   204  ILE204      0.2617
    121  O         17.8630    2.6770   34.8400 O.2   204  ILE204     -0.2715
    122  CB        21.1490    2.9240   35.3870 C.3   204  ILE204      0.0290
    123  CG1       22.5340    2.5660   34.8360 C.3   204  ILE204      0.0022
    124  CG2       20.6900    1.8120   36.3130 C.3   204  ILE204      0.0023
    125  CD1       22.5590    1.3760   33.9180 C.3   204  ILE204      0.0001
    126  N         18.5730    4.8040   35.0290 N.am  205  THR205     -0.1937
    127  CA        17.2820    5.3010   35.5250 C.3   205  THR205      0.2028
    128  C         16.2080    5.1000   34.4560 C.2   205  THR205      0.2642
    129  O         15.0460    4.8300   34.7630 O.2   205  THR205     -0.2714
    130  CB        17.3370    6.7880   35.8460 C.3   205  THR205      0.1808
    131  OG1       18.5450    7.0820   36.5440 O.3   205  THR205     -0.2208
    132  CG2       16.1690    7.1950   36.7000 C.3   205  THR205      0.0379
    133  N         16.6230    5.2150   33.1960 N.am  206  ARG206     -0.1977
    134  CA        15.7310    5.0400   32.0640 C.3   206  ARG206      0.1597
    135  C         15.1890    3.6270   32.1160 C.2   206  ARG206      0.2287
    136  O         13.9930    3.4170   31.9310 O.2   206  ARG206     -0.2864
    137  CB        16.4920    5.2660   30.7560 C.3   206  ARG206      0.0334
    138  CG        15.7140    4.9330   29.5060 C.3   206  ARG206      0.0492
    139  CD        16.6360    4.9380   28.2990 C.3   206  ARG206      0.2205
    140  NE        15.9350    4.7130   27.0410 N.pl3 206  ARG206     -0.0865
    141  CZ        15.8060    3.5280   26.4700 C.cat 206  ARG206      0.5346
    142  NH1       16.3260    2.4500   27.0440 N.pl3 206  ARG206      0.1354
    143  NH2       15.1760    3.4270   25.3090 N.pl3 206  ARG206      0.1354
    144  N         14.9990   11.7990   33.0950 N.3   239  THR239     -0.1203
    145  CA        15.5140   10.8690   34.0870 C.3   239  THR239      0.1994
    146  C         17.0440   10.8420   34.1240 C.2   239  THR239      0.2619
    147  O         17.7060   10.9810   33.0850 O.2   239  THR239     -0.2717
    148  CB        15.0320    9.4200   33.8360 C.3   239  THR239      0.1784
    149  OG1       15.5290    8.9480   32.5860 O.3   239  THR239     -0.2211
    150  CG2       13.5140    9.3180   33.8480 C.3   239  THR239      0.0376
    151  N         17.6020   10.7130   35.3270 N.am  240  SER240     -0.1937
    152  CA        19.0450   10.5990   35.5170 C.3   240  SER240      0.2055
    153  C         19.2790   10.1200   36.9340 C.2   240  SER240      0.2644
    154  O         18.3620   10.1250   37.7510 O.2   240  SER240     -0.2714
    155  CB        19.7910   11.9030   35.2540 C.3   240  SER240      0.2130
    156  OG        19.6510   12.8390   36.2970 O.3   240  SER240     -0.2179
    157  N         20.4920    9.6520   37.2000 N.am  241  THR241     -0.1936
    158  CA        20.8550    9.1580   38.5090 C.3   241  THR241      0.2028
    159  C         20.6050   10.2080   39.5850 C.2   241  THR241      0.2642
    160  O         20.0530    9.8980   40.6370 O.2   241  THR241     -0.2714
    161  CB        22.3070    8.6750   38.4950 C.3   241  THR241      0.1808
    162  OG1       22.3810    7.4750   37.7210 O.3   241  THR241     -0.2208
    163  CG2       22.7970    8.3700   39.8900 C.3   241  THR241      0.0379
    164  N         20.9050   11.4650   39.2750 N.am  242  THR242     -0.1950
    165  CA        20.7120   12.5560   40.2200 C.3   242  THR242      0.1897
    166  C         19.3610   13.2750   40.1220 C.2   242  THR242      0.2313
    167  O         18.8840   13.8260   41.1080 O.2   242  THR242     -0.2863
    168  CB        21.8900   13.5600   40.1360 C.3   242  THR242      0.1794
    169  OG1       22.0780   13.9760   38.7760 O.3   242  THR242     -0.2208
    170  CG2       23.1650   12.8890   40.5940 C.3   242  THR242      0.0378
@<TRIPOS>BOND
     1    34    33    2
     2    33    32    1
     3    31    32    1
     4    32    35    1
     5    35    36    1
     6    42    43    1
     7    47    46    1
     8    36    37    1
     9    46    43    1
    10    43    44    1
    11    38    37    1
    12    38    39    2
    13    41    39    1
    14    44    45    2
    15    39    40    1
    16    70    71    1
    17    73    72    2
    18    78    76   ar
    19    75    76    1
    20    75    74    1
    21    71    74    1
    22    71    72    1
    23   143   141    1
    24   109   110    1
    25    76    77   ar
    26    65    66    1
    27    72    79   am
    28   110   111    1
    29   110   113    1
    30   141   140    2
    31   141   142    1
    32    57    58    1
    33    59    58    1
    34    59    60    2
    35    66    69    1
    36    66    67    1
    37    79    80    1
    38   111   112    2
    39    58    61    1
    40   140   139    1
    41    48    49    1
    42    82    81    2
    43    80    81    1
    44    67    68    2
    45    81    83   am
    46   108   106   am
    47    83    84    1
    48    84    87    1
    49    84    85    1
    50    49    50    1
    51    49    52    1
    52    87    88    1
    53   139   138    1
    54    50    51    2
    55    61    62    1
    56    64    62    1
    57    98    97    2
    58    62    63    1
    59   106   105    1
    60   106   107    2
    61   102   103    1
    62   102   105    1
    63   102   101    1
    64    86    85    2
    65   103   104    2
    66    85    89   am
    67    53    52    1
    68    53    54    1
    69   138   137    1
    70   114   115    1
    71    97   101   am
    72    97    96    1
    73    89    90    1
    74    54    55    1
    75   137   134    1
    76    95    96    1
    77    95    91   am
    78    23    22    2
    79     9     7   ar
    80     9    11   ar
    81   100    99    1
    82    25    26    1
    83    25    24    1
    84    12    11    1
    85    26    27    1
    86    96    99    1
    87    90    91    1
    88    90    93    1
    89   115   116    1
    90    56    55    1
    91     7     6   ar
    92    91    92    2
    93    11    10   ar
    94   117   116    2
    95    29    28    1
    96   136   135    2
    97    22    21    1
    98   134   135    1
    99   134   133    1
   100   116   118   am
   101    21    24    1
   102    21    20    1
   103     1     2    1
   104    27    28    2
   105    93    94    1
   106    28    30    1
   107   149   148    1
   108     6     5    1
   109     6     8   ar
   110    10     8   ar
   111     4     3    2
   112   147   146    2
   113   144   145    1
   114   133   128   am
   115   118   119    1
   116     2     5    1
   117     2     3    1
   118   148   150    1
   119   148   145    1
   120   125   123    1
   121   145   146    1
   122   146   151   am
   123   119   120    1
   124   119   122    1
   125   128   129    2
   126   128   127    1
   127   120   121    2
   128   120   126   am
   129   123   122    1
   130   126   127    1
   131   155   152    1
   132   155   156    1
   133   151   152    1
   134   122   124    1
   135   152   153    1
   136   127   130    1
   137   130   131    1
   138   130   132    1
   139   153   157   am
   140   153   154    2
   141   157   158    1
   142    13    14    1
   143    19    17    1
   144   162   161    1
   145    17    14    1
   146    17    18    1
   147   161   158    1
   148   161   163    1
   149   158   159    1
   150    16    15    2
   151    14    15    1
   152   169   168    1
   153   164   159   am
   154   164   165    1
   155   159   160    2
   156   166   165    1
   157   166   167    2
   158   168   165    1
   159   168   170    1
