@<TRIPOS>MOLECULE
tmp/1a0iA00.pdb
 173 165 0 0 0
SMALL
GASTEIGER

@<TRIPOS>ATOM
      1  N          1.1840  -13.8190   63.2590 N.3     8  PHE8       -0.1227
      2  CA         2.3570  -13.3530   62.5230 C.3     8  PHE8        0.1736
      3  C          2.3960  -14.1250   61.2060 C.2     8  PHE8        0.2595
      4  O          2.4070  -15.3740   61.1950 O.2     8  PHE8       -0.2718
      5  CB         3.6260  -13.6370   63.3730 C.3     8  PHE8        0.0547
      6  CG         4.9480  -12.9000   63.1160 C.ar    8  PHE8       -0.0202
      7  CD1        5.2260  -12.2280   61.9410 C.ar    8  PHE8       -0.0042
      8  CD2        5.9030  -12.8870   64.1230 C.ar    8  PHE8       -0.0042
      9  CE1        6.4350  -11.5500   61.7910 C.ar    8  PHE8       -0.0003
     10  CE2        7.1110  -12.2090   63.9650 C.ar    8  PHE8       -0.0003
     11  CZ         7.3810  -11.5330   62.8000 C.ar    8  PHE8       -0.0000
     12  N          2.3650  -13.3840   60.0960 N.am    9  LYS9       -0.1966
     13  CA         2.5020  -13.9680   58.7700 C.3     9  LYS9        0.1728
     14  C          3.8760  -13.5560   58.2410 C.2     9  LYS9        0.2616
     15  O          4.2070  -12.3710   58.1050 O.2     9  LYS9       -0.2715
     16  CB         1.4270  -13.4530   57.8020 C.3     9  LYS9        0.0311
     17  CG        -0.0040  -13.4910   58.3030 C.3     9  LYS9        0.0038
     18  CD        -0.9610  -12.9630   57.2440 C.3     9  LYS9        0.0206
     19  CE        -1.1720  -14.0850   56.2280 C.3     9  LYS9        0.1093
     20  NZ        -2.0720  -13.7170   55.1460 N.3     9  LYS9       -0.1314
     21  N          4.7000  -14.5530   57.9410 N.am   10  ALA10      -0.1977
     22  CA         6.0300  -14.2880   57.4280 C.3    10  ALA10       0.1597
     23  C          6.0400  -13.4960   56.1270 C.2    10  ALA10       0.2287
     24  O          5.1550  -13.6870   55.2650 O.2    10  ALA10      -0.2864
     25  CB         6.7420  -15.5970   57.1850 C.3    10  ALA10       0.0319
     26  N         12.7710  -23.0190   60.6860 N.3    31  GLU31      -0.1231
     27  CA        11.8720  -24.1480   60.8160 C.3    31  GLU31       0.1699
     28  C         11.3060  -24.5490   59.4600 C.2    31  GLU31       0.2592
     29  O         11.3430  -23.8180   58.4640 O.2    31  GLU31      -0.2718
     30  CB        10.6970  -23.8200   61.7370 C.3    31  GLU31       0.0402
     31  CG        11.0320  -23.4850   63.1960 C.3    31  GLU31       0.1161
     32  CD         9.9200  -22.7520   63.9070 C.2    31  GLU31       0.3649
     33  OE1        8.7780  -22.7550   63.4620 O.co2  31  GLU31      -0.2457
     34  OE2       10.1320  -21.9760   64.8300 O.co2  31  GLU31      -0.2457
     35  N         10.7680  -25.7420   59.3640 N.am   32  ILE32      -0.1966
     36  CA        10.1110  -26.1670   58.1480 C.3    32  ILE32       0.1727
     37  C          8.8790  -25.2960   57.9840 C.2    32  ILE32       0.2616
     38  O          8.2860  -24.8330   58.9520 O.2    32  ILE32      -0.2715
     39  CB         9.7500  -27.6540   58.2900 C.3    32  ILE32       0.0290
     40  CG1       11.0690  -28.3940   58.4450 C.3    32  ILE32       0.0022
     41  CG2        8.8980  -28.1620   57.1260 C.3    32  ILE32       0.0023
     42  CD1       10.9160  -29.8880   58.6720 C.3    32  ILE32       0.0001
     43  N          8.5150  -24.9900   56.7610 N.am   33  LYS33      -0.1963
     44  CA         7.3020  -24.2580   56.5060 C.3    33  LYS33       0.1728
     45  C          6.3510  -25.3960   56.1890 C.2    33  LYS33       0.2616
     46  O          6.3620  -25.9660   55.1010 O.2    33  LYS33      -0.2715
     47  CB         7.4790  -23.3540   55.3040 C.3    33  LYS33       0.0311
     48  CG         6.2730  -22.5100   55.0400 C.3    33  LYS33       0.0038
     49  CD         6.4490  -21.7010   53.7760 C.3    33  LYS33       0.0206
     50  CE         5.1150  -21.0500   53.4110 C.3    33  LYS33       0.1093
     51  NZ         4.0430  -22.0290   53.3120 N.3    33  LYS33      -0.1314
     52  N          5.5650  -25.7680   57.1850 N.am   34  TYR34      -0.1974
     53  CA         4.6000  -26.8500   57.0440 C.3    34  TYR34       0.1639
     54  C          3.4530  -26.4330   56.1620 C.2    34  TYR34       0.2290
     55  O          3.1150  -25.2620   56.1080 O.2    34  TYR34      -0.2864
     56  CB         4.0330  -27.2300   58.3880 C.3    34  TYR34       0.0560
     57  CG         5.0830  -27.7700   59.3340 C.ar   34  TYR34      -0.0198
     58  CD1        5.4980  -29.1040   59.2150 C.ar   34  TYR34      -0.0009
     59  CD2        5.6300  -26.9310   60.3060 C.ar   34  TYR34      -0.0009
     60  CE1        6.4700  -29.6120   60.0700 C.ar   34  TYR34       0.0417
     61  CE2        6.6010  -27.4230   61.1680 C.ar   34  TYR34       0.0417
     62  CZ         6.9960  -28.7540   61.0410 C.ar   34  TYR34       0.1957
     63  OH         7.8690  -29.2230   61.9750 O.3    34  TYR34      -0.2866
     64  N         -3.1280  -23.5310   59.4990 N.3    38  ARG38      -0.1245
     65  CA        -2.6990  -22.8150   60.6900 C.3    38  ARG38       0.1563
     66  C         -3.8250  -22.7830   61.7210 C.2    38  ARG38       0.2260
     67  O         -4.9020  -22.2580   61.4250 O.2    38  ARG38      -0.2867
     68  CB        -2.3400  -21.3800   60.3160 C.3    38  ARG38       0.0307
     69  CG        -1.5140  -20.6870   61.3520 C.3    38  ARG38       0.0489
     70  CD        -1.2760  -19.2700   60.9940 C.3    38  ARG38       0.2205
     71  NE        -0.2550  -18.8370   61.9170 N.pl3  38  ARG38      -0.0865
     72  CZ         0.6970  -17.9290   61.6890 C.cat  38  ARG38       0.5346
     73  NH1        0.8070  -17.3360   60.5220 N.pl3  38  ARG38       0.1354
     74  NH2        1.5310  -17.5520   62.6450 N.pl3  38  ARG38       0.1354
     75  N         -6.3570  -18.6070   60.9540 N.3    54  ARG54      -0.1245
     76  CA        -5.4980  -17.4470   60.7630 C.3    54  ARG54       0.1563
     77  C         -6.3590  -16.2100   60.4160 C.2    54  ARG54       0.2260
     78  O         -5.9590  -15.0530   60.4720 O.2    54  ARG54      -0.2867
     79  CB        -4.4650  -17.8980   59.6510 C.3    54  ARG54       0.0307
     80  CG        -4.3310  -17.3570   58.1900 C.3    54  ARG54       0.0489
     81  CD        -4.2800  -18.4090   57.0240 C.3    54  ARG54       0.2205
     82  NE        -3.1570  -19.3570   56.8910 N.pl3  54  ARG54      -0.0865
     83  CZ        -3.2120  -20.7190   56.8130 C.cat  54  ARG54       0.5346
     84  NH1       -4.3430  -21.4300   56.9570 N.pl3  54  ARG54       0.1354
     85  NH2       -2.0650  -21.3910   56.6750 N.pl3  54  ARG54       0.1354
     86  N          0.7150  -25.3630   63.1330 N.3    92  GLU92      -0.1245
     87  CA         0.1280  -26.0390   61.9850 C.3    92  GLU92       0.1567
     88  C         -0.5440  -27.3640   62.3280 C.2    92  GLU92       0.2260
     89  O         -0.0170  -28.2780   62.9980 O.2    92  GLU92      -0.2867
     90  CB         1.1890  -26.3090   60.9300 C.3    92  GLU92       0.0388
     91  CG         1.6630  -25.0320   60.2640 C.3    92  GLU92       0.1160
     92  CD         0.7450  -24.5880   59.1460 C.2    92  GLU92       0.3649
     93  OE1        0.4320  -25.3860   58.2700 O.co2  92  GLU92      -0.2457
     94  OE2        0.3100  -23.4410   59.1320 O.co2  92  GLU92      -0.2457
     95  N          4.4580  -23.3750   66.9830 N.3   140  TYR140     -0.1241
     96  CA         5.6090  -22.4900   66.8930 C.3   140  TYR140      0.1605
     97  C          5.4170  -21.2710   67.7720 C.2   140  TYR140      0.2264
     98  O          6.3640  -20.4910   67.8900 O.2   140  TYR140     -0.2867
     99  CB         5.8840  -21.9870   65.4520 C.3   140  TYR140      0.0534
    100  CG         4.7200  -21.8990   64.4580 C.ar  140  TYR140     -0.0201
    101  CD1        3.9180  -20.7630   64.4390 C.ar  140  TYR140     -0.0009
    102  CD2        4.4600  -22.9350   63.5470 C.ar  140  TYR140     -0.0009
    103  CE1        2.8650  -20.6530   63.5350 C.ar  140  TYR140      0.0417
    104  CE2        3.3990  -22.8230   62.6390 C.ar  140  TYR140      0.0417
    105  CZ         2.6030  -21.6780   62.6440 C.ar  140  TYR140      0.1957
    106  OH         1.5030  -21.5670   61.8240 O.3   140  TYR140     -0.2866
    107  N         10.6070  -21.2700   57.1160 N.3   211  ILE211     -0.1245
    108  CA        10.2810  -19.9410   57.5910 C.3   211  ILE211      0.1561
    109  C         11.5420  -19.5220   58.3640 C.2   211  ILE211      0.2260
    110  O         11.9500  -20.1520   59.3460 O.2   211  ILE211     -0.2867
    111  CB         9.0330  -20.0410   58.4720 C.3   211  ILE211      0.0252
    112  CG1        7.8870  -20.5570   57.6210 C.3   211  ILE211      0.0019
    113  CG2        8.7390  -18.6790   59.0970 C.3   211  ILE211      0.0019
    114  CD1        7.3000  -19.5130   56.6580 C.3   211  ILE211      0.0001
    115  N         13.3610  -17.3490   60.8680 N.3   213  LYS213     -0.1245
    116  CA        12.9320  -16.4710   61.9380 C.3   213  LYS213      0.1561
    117  C         14.0890  -15.7120   62.5870 C.2   213  LYS213      0.2260
    118  O         15.0950  -16.3130   63.0000 O.2   213  LYS213     -0.2867
    119  CB        12.1910  -17.3180   62.9740 C.3   213  LYS213      0.0271
    120  CG        10.9770  -18.0080   62.4130 C.3   213  LYS213      0.0035
    121  CD        10.1830  -18.6910   63.4860 C.3   213  LYS213      0.0206
    122  CE         8.9560  -19.2530   62.8000 C.3   213  LYS213      0.1093
    123  NZ         8.4060  -20.2790   63.6290 N.3   213  LYS213     -0.1314
    124  N          1.1080   -9.7090   58.5240 N.3   223  LYS223     -0.1245
    125  CA         2.2600   -9.9730   57.6670 C.3   223  LYS223      0.1561
    126  C          3.3730   -8.9670   57.9610 C.2   223  LYS223      0.2260
    127  O          3.2210   -7.7560   57.7050 O.2   223  LYS223     -0.2867
    128  CB         1.7730   -9.8960   56.2260 C.3   223  LYS223      0.0271
    129  CG         2.6210  -10.5850   55.1920 C.3   223  LYS223      0.0035
    130  CD         1.8770  -10.5310   53.8730 C.3   223  LYS223      0.0206
    131  CE         2.3560  -11.6050   52.9140 C.3   223  LYS223      0.1093
    132  NZ         2.0320  -12.9310   53.4230 N.3   223  LYS223     -0.1314
    133  N         10.0170  -12.6940   60.2040 N.3   227  TRP227     -0.1241
    134  CA         9.8250  -14.0820   59.8090 C.3   227  TRP227      0.1605
    135  C          9.8020  -13.9490   58.2920 C.2   227  TRP227      0.2264
    136  O          9.1730  -13.0310   57.7470 O.2   227  TRP227     -0.2867
    137  CB         8.4870  -14.6840   60.2710 C.3   227  TRP227      0.0550
    138  CG         8.3350  -14.9790   61.7670 C.ar  227  TRP227      0.0003
    139  CD1        9.2390  -14.5660   62.7270 C.ar  227  TRP227      0.0946
    140  CD2        7.2890  -15.6710   62.3040 C.ar  227  TRP227      0.0152
    141  NE1        8.7780  -15.0030   63.8720 N.ar  227  TRP227     -0.2442
    142  CE2        7.6130  -15.6730   63.6830 C.ar  227  TRP227      0.0810
    143  CE3        6.1330  -16.2970   61.8210 C.ar  227  TRP227      0.0012
    144  CZ2        6.7420  -16.3110   64.5870 C.ar  227  TRP227      0.0191
    145  CZ3        5.2750  -16.9340   62.7240 C.ar  227  TRP227      0.0001
    146  CH2        5.5740  -16.9260   64.0910 C.ar  227  TRP227      0.0015
    147  N          9.6680  -16.1120   54.4530 N.3   229  LYS229     -0.1245
    148  CA         9.4490  -17.4060   53.8460 C.3   229  LYS229      0.1561
    149  C         10.6770  -17.6440   52.9940 C.2   229  LYS229      0.2260
    150  O         11.0070  -16.7910   52.1610 O.2   229  LYS229     -0.2867
    151  CB         8.2680  -17.4760   52.8860 C.3   229  LYS229      0.0271
    152  CG         6.8820  -17.6460   53.4290 C.3   229  LYS229      0.0035
    153  CD         6.3090  -16.2580   53.4570 C.3   229  LYS229      0.0206
    154  CE         5.0760  -16.2520   52.5890 C.3   229  LYS229      0.1093
    155  NZ         5.2180  -15.3250   51.4980 N.3   229  LYS229     -0.1314
    156  N         11.0760  -19.6970   50.3390 N.3   231  LYS231     -0.1245
    157  CA        10.3760  -20.5820   49.4090 C.3   231  LYS231      0.1561
    158  C         10.2460  -19.8970   48.0380 C.2   231  LYS231      0.2260
    159  O         10.0630  -18.6810   48.0070 O.2   231  LYS231     -0.2867
    160  CB         8.9960  -20.9050   50.0080 C.3   231  LYS231      0.0271
    161  CG         7.9920  -21.5540   49.0700 C.3   231  LYS231      0.0035
    162  CD         6.6780  -21.8840   49.7250 C.3   231  LYS231      0.0206
    163  CE         5.5620  -22.0560   48.7040 C.3   231  LYS231      0.1093
    164  NZ         5.1160  -20.8110   48.0840 N.3   231  LYS231     -0.1314
    165  N          8.6230  -18.2800   45.3530 N.3   233  GLU233     -0.1245
    166  CA         7.3020  -17.7000   45.2480 C.3   233  GLU233      0.1567
    167  C          7.1460  -16.8640   43.9920 C.2   233  GLU233      0.2260
    168  O          6.0520  -16.3940   43.6700 O.2   233  GLU233     -0.2867
    169  CB         7.0250  -16.8570   46.5060 C.3   233  GLU233      0.0388
    170  CG         6.6680  -17.7260   47.7320 C.3   233  GLU233      0.1160
    171  CD         6.1790  -16.9520   48.9490 C.2   233  GLU233      0.3649
    172  OE1        6.9530  -16.2170   49.5620 O.co2 233  GLU233     -0.2457
    173  OE2        5.0150  -17.0760   49.3290 O.co2 233  GLU233     -0.2457
@<TRIPOS>BOND
     1   168   167    2
     2   167   166    1
     3   166   165    1
     4   166   169    1
     5   169   170    1
     6   170   171    1
     7   159   158    2
     8   158   157    1
     9   164   163    1
    10   163   162    1
    11   171   173   ar
    12   171   172   ar
    13   161   162    1
    14   161   160    1
    15   157   160    1
    16   157   156    1
    17   155   154    1
    18   150   149    2
    19   154   153    1
    20   151   152    1
    21   151   148    1
    22   131   132    1
    23   131   130    1
    24   149   148    1
    25    51    50    1
    26    50    49    1
    27   152   153    1
    28    49    48    1
    29   148   147    1
    30   130   129    1
    31    48    47    1
    32    46    45    2
    33    20    19    1
    34   129   128    1
    35    24    23    2
    36    47    44    1
    37    55    54    2
    38    23    22    1
    39    54    53    1
    40    45    44    1
    41    45    52   am
    42   128   125    1
    43    19    18    1
    44    44    43    1
    45   114   112    1
    46    85    83    1
    47    43    37   am
    48    83    82    2
    49    83    84    1
    50    82    81    1
    51    81    80    1
    52    53    52    1
    53    53    56    1
    54   107   108    1
    55    41    39    1
    56    25    22    1
    57    18    17    1
    58    22    21    1
    59   108   109    1
    60   108   111    1
    61   112   111    1
    62   125   126    1
    63   125   124    1
    64   127   126    2
    65   136   135    2
    66    16    17    1
    67    16    13    1
    68    21    14   am
    69    37    36    1
    70    37    38    2
    71    15    14    2
    72    36    39    1
    73    36    35    1
    74    80    79    1
    75    14    13    1
    76    93    92   ar
    77    39    40    1
    78   135   134    1
    79   109   110    2
    80    56    57    1
    81    40    42    1
    82    29    28    2
    83   111   113    1
    84    13    12    1
    85    94    92   ar
    86    92    91    1
    87    58    57   ar
    88    58    60   ar
    89    57    59   ar
    90    35    28   am
    91    28    27    1
    92    64    65    1
    93    79    76    1
    94   134   133    1
    95   134   137    1
    96    60    62   ar
    97    12     3   am
    98    91    90    1
    99   137   138    1
   100    59    61   ar
   101    68    65    1
   102    68    69    1
   103    77    78    2
   104    77    76    1
   105    73    72    1
   106    26    27    1
   107    65    66    1
   108    76    75    1
   109    27    30    1
   110   115   116    1
   111    90    87    1
   112    70    69    1
   113    70    71    1
   114    62    61   ar
   115    62    63    1
   116     4     3    2
   117     3     2    1
   118    67    66    2
   119    72    71    2
   120    72    74    1
   121    30    31    1
   122   138   140   ar
   123   138   139   ar
   124     9     7   ar
   125     9    11   ar
   126   143   140   ar
   127   143   145   ar
   128   106   105    1
   129   116   117    1
   130   116   119    1
   131     7     6   ar
   132    87    88    1
   133    87    86    1
   134   140   142   ar
   135    88    89    2
   136   120   119    1
   137   120   121    1
   138     2     1    1
   139     2     5    1
   140   117   118    2
   141   104   105   ar
   142   104   102   ar
   143   105   103   ar
   144   145   146   ar
   145   139   141   ar
   146   122   121    1
   147   122   123    1
   148    11    10   ar
   149     6     5    1
   150     6     8   ar
   151    31    32    1
   152    33    32   ar
   153   103   101   ar
   154   102   100   ar
   155   142   141   ar
   156   142   144   ar
   157    32    34   ar
   158    10     8   ar
   159   146   144   ar
   160   101   100   ar
   161   100    99    1
   162    99    96    1
   163    96    95    1
   164    96    97    1
   165    97    98    2
