@<TRIPOS>MOLECULE
tmp/1a0jD00.pdb
 130 130 0 0 0
SMALL
GASTEIGER

@<TRIPOS>ATOM
      1  N          8.7760   14.6430   92.5070 N.3    40  HIS40      -0.1241
      2  CA         7.9080   13.8280   93.3430 C.3    40  HIS40       0.1621
      3  C          6.4610   14.3110   93.2670 C.2    40  HIS40       0.2264
      4  O          5.5590   13.6640   93.7990 O.2    40  HIS40      -0.2867
      5  CB         8.4260   13.8270   94.7870 C.3    40  HIS40       0.0745
      6  CG         8.1860   15.0050   95.7190 C.ar   40  HIS40       0.0817
      7  ND1        9.0160   15.9850   96.0720 N.ar   40  HIS40      -0.2268
      8  CD2        7.0100   15.2010   96.3960 C.ar   40  HIS40       0.1154
      9  CE1        8.3800   16.7680   96.9150 C.ar   40  HIS40       0.1986
     10  NE2        7.1820   16.2890   97.1000 N.ar   40  HIS40      -0.2212
     11  N          9.4170   27.7780  108.1860 N.3   171  ASP171     -0.1225
     12  CA         9.8450   26.7460  107.2380 C.3   171  ASP171      0.1805
     13  C          8.7820   26.5810  106.1550 C.2   171  ASP171      0.2598
     14  O          7.6660   27.1130  106.3030 O.2   171  ASP171     -0.2718
     15  CB        10.0370   25.4090  107.9970 C.3   171  ASP171      0.1424
     16  CG        10.7570   24.2480  107.3360 C.2   171  ASP171      0.3668
     17  OD1       11.3260   24.4240  106.2620 O.co2 171  ASP171     -0.2456
     18  OD2       10.7610   23.1600  107.9040 O.co2 171  ASP171     -0.2456
     19  N          9.1210   25.9320  105.0200 N.am  172  SER172     -0.1938
     20  CA         8.1020   25.5280  104.0520 C.3   172  SER172      0.2055
     21  C          7.5120   24.2370  104.6440 C.2   172  SER172      0.2643
     22  O          8.0180   23.7140  105.6580 O.2   172  SER172     -0.2714
     23  CB         8.7350   25.2620  102.6680 C.3   172  SER172      0.2130
     24  OG         9.9460   24.5480  102.8290 O.3   172  SER172     -0.2179
     25  N          6.4650   23.6580  104.0490 N.am  173  CYS173     -0.1953
     26  CA         5.8630   22.5000  104.6820 C.3   173  CYS173      0.1843
     27  C          5.1130   21.6990  103.6300 C.2   173  CYS173      0.2625
     28  O          5.1970   22.0450  102.4360 O.2   173  CYS173     -0.2714
     29  CB         4.9510   23.0040  105.8020 C.3   173  CYS173      0.0997
     30  SG         4.4920   21.6920  106.9540 S.3   173  CYS173     -0.0797
     31  N          4.4260   20.6180  104.0130 N.am  174  GLN174     -0.1977
     32  CA         3.6300   19.8170  103.0740 C.3   174  GLN174      0.1601
     33  C          2.6670   20.6950  102.2690 C.2   174  GLN174      0.2287
     34  O          2.0610   21.6410  102.7950 O.2   174  GLN174     -0.2864
     35  CB         2.8440   18.7190  103.8400 C.3   174  GLN174      0.0394
     36  CG         1.9560   19.1820  104.9760 C.3   174  GLN174      0.0908
     37  CD         1.4330   18.0450  105.8360 C.2   174  GLN174      0.2608
     38  OE1        2.1960   17.2920  106.4370 O.2   174  GLN174     -0.2717
     39  NE2        0.1260   17.8920  105.9510 N.am  174  GLN174     -0.0878
     40  N          5.7550   21.7300   98.3350 N.3   177  SER177     -0.1217
     41  CA         6.6270   21.0260   97.4230 C.3   177  SER177      0.1889
     42  C          6.4760   21.4340   95.9620 C.2   177  SER177      0.2288
     43  O          5.3470   21.6560   95.4930 O.2   177  SER177     -0.2866
     44  CB         6.3670   19.5490   97.6150 C.3   177  SER177      0.2089
     45  OG         6.7110   19.1980   98.9460 O.3   177  SER177     -0.2183
     46  N         11.1610   23.5970   96.3900 N.3   191  VAL191     -0.1231
     47  CA        10.8460   22.9860   97.6880 C.3   191  VAL191      0.1692
     48  C         10.7950   21.4420   97.5450 C.2   191  VAL191      0.2593
     49  O         10.0170   20.9190   96.7260 O.2   191  VAL191     -0.2718
     50  CB         9.4760   23.5410   98.2050 C.3   191  VAL191      0.0266
     51  CG1        9.1740   22.9260   99.5690 C.3   191  VAL191      0.0020
     52  CG2        9.4910   25.0530   98.2750 C.3   191  VAL191      0.0020
     53  N         11.5650   20.7000   98.3290 N.am  192  SER192     -0.1938
     54  CA        11.6900   19.2720   98.1220 C.3   192  SER192      0.2055
     55  C         11.2990   18.4360   99.3220 C.2   192  SER192      0.2643
     56  O         10.3380   17.6570   99.2010 O.2   192  SER192     -0.2714
     57  CB        13.1340   18.9650   97.6980 C.3   192  SER192      0.2130
     58  OG        13.3070   17.5920   97.3740 O.3   192  SER192     -0.2179
     59  N         11.9550   18.5440  100.4880 N.am  193  TRP193     -0.1959
     60  CA        11.6120   17.7050  101.6270 C.3   193  TRP193      0.1771
     61  C         12.1570   18.2890  102.9130 C.2   193  TRP193      0.2620
     62  O         12.8290   19.3160  102.8820 O.2   193  TRP193     -0.2715
     63  CB        12.1820   16.2920  101.4300 C.3   193  TRP193      0.0590
     64  CG        13.7110   16.1220  101.3770 C.ar  193  TRP193      0.0006
     65  CD1       14.3910   16.2540  100.1890 C.ar  193  TRP193      0.0946
     66  CD2       14.5280   15.7310  102.4250 C.ar  193  TRP193      0.0152
     67  NE1       15.6230   15.9170  100.4740 N.ar  193  TRP193     -0.2442
     68  CE2       15.7590   15.6010  101.7750 C.ar  193  TRP193      0.0810
     69  CE3       14.4300   15.4560  103.8010 C.ar  193  TRP193      0.0012
     70  CZ2       16.9020   15.1910  102.4780 C.ar  193  TRP193      0.0191
     71  CZ3       15.5760   15.0510  104.4990 C.ar  193  TRP193      0.0001
     72  CH2       16.7980   14.9170  103.8460 C.ar  193  TRP193      0.0015
     73  N         11.9020   17.6360  104.0410 N.am  194  GLY194     -0.1940
     74  CA        12.4190   18.0350  105.3410 C.3   194  GLY194      0.2014
     75  C         11.8460   17.1000  106.4010 C.2   194  GLY194      0.2639
     76  O         10.9810   16.3030  106.0550 O.2   194  GLY194     -0.2714
     77  N         12.3110   17.0890  107.6540 N.am  195  TYR195     -0.1959
     78  CA        11.7630   16.2470  108.7170 C.3   195  TYR195      0.1771
     79  C         10.7760   17.1190  109.4670 C.2   195  TYR195      0.2620
     80  O         11.1590   18.0650  110.1510 O.2   195  TYR195     -0.2715
     81  CB        12.8130   15.7900  109.7180 C.3   195  TYR195      0.0574
     82  CG        13.7520   14.6530  109.3320 C.ar  195  TYR195     -0.0198
     83  CD1       13.7590   14.0420  108.0690 C.ar  195  TYR195     -0.0009
     84  CD2       14.6600   14.2250  110.3050 C.ar  195  TYR195     -0.0009
     85  CE1       14.6730   13.0160  107.7870 C.ar  195  TYR195      0.0417
     86  CE2       15.5730   13.2070  110.0320 C.ar  195  TYR195      0.0417
     87  CZ        15.5780   12.6070  108.7750 C.ar  195  TYR195      0.1957
     88  OH        16.5010   11.6140  108.5150 O.3   195  TYR195     -0.2866
     89  N          9.4930   16.8170  109.2800 N.am  196  GLY196     -0.1940
     90  CA         8.4180   17.6100  109.8360 C.3   196  GLY196      0.2014
     91  C          8.4530   18.9800  109.1690 C.2   196  GLY196      0.2639
     92  O          8.8620   19.0990  108.0080 O.2   196  GLY196     -0.2714
     93  N          8.0460   20.0000  109.9030 N.am  197  CYS197     -0.1967
     94  CA         8.1050   21.3490  109.4210 C.3   197  CYS197      0.1712
     95  C          8.4150   22.2200  110.6160 C.2   197  CYS197      0.2296
     96  O          7.8010   22.0660  111.6750 O.2   197  CYS197     -0.2864
     97  CB         6.7740   21.8110  108.8380 C.3   197  CYS197      0.0983
     98  SG         6.1640   20.7480  107.5130 S.3   197  CYS197     -0.0798
     99  N         16.0500   20.9310  111.9550 N.3   202  LYS202     -0.1245
    100  CA        15.5960   20.2320  110.7600 C.3   202  LYS202      0.1561
    101  C         15.1150   21.2790  109.7420 C.2   202  LYS202      0.2260
    102  O         13.9130   21.5110  109.5560 O.2   202  LYS202     -0.2867
    103  CB        14.4830   19.2710  111.1500 C.3   202  LYS202      0.0271
    104  CG        14.9020   18.2600  112.2000 C.3   202  LYS202      0.0035
    105  CD        16.0290   17.4480  111.5900 C.3   202  LYS202      0.0206
    106  CE        16.8070   16.5680  112.5840 C.3   202  LYS202      0.1093
    107  NZ        17.4910   17.3760  113.5760 N.3   202  LYS202     -0.1314
    108  N         14.4700   23.1030  105.9150 N.3   204  GLY204     -0.1210
    109  CA        13.9780   22.5510  104.6480 C.3   204  GLY204      0.1956
    110  C         15.1510   22.3130  103.6850 C.2   204  GLY204      0.2612
    111  O         16.1510   23.0650  103.7090 O.2   204  GLY204     -0.2717
    112  N         15.0220   21.2510  102.8760 N.am  205  VAL205     -0.1965
    113  CA        15.9970   20.8210  101.8960 C.3   205  VAL205      0.1727
    114  C         15.3270   21.1120  100.5560 C.2   205  VAL205      0.2616
    115  O         14.1240   20.8710  100.3440 O.2   205  VAL205     -0.2715
    116  CB        16.3040   19.3160  102.0390 C.3   205  VAL205      0.0290
    117  CG1       17.4030   18.9610  101.0580 C.3   205  VAL205      0.0023
    118  CG2       16.7470   18.9740  103.4360 C.3   205  VAL205      0.0023
    119  N         16.1200   21.6600   99.6390 N.am  206  TYR206     -0.1974
    120  CA        15.6700   22.2210   98.3860 C.3   206  TYR206      0.1639
    121  C         16.5060   21.6790   97.2430 C.2   206  TYR206      0.2290
    122  O         17.7000   21.4140   97.4310 O.2   206  TYR206     -0.2864
    123  CB        15.7970   23.7550   98.4490 C.3   206  TYR206      0.0560
    124  CG        14.8690   24.3760   99.4800 C.ar  206  TYR206     -0.0198
    125  CD1       13.5440   24.6650   99.1460 C.ar  206  TYR206     -0.0009
    126  CD2       15.3300   24.6020  100.7830 C.ar  206  TYR206     -0.0009
    127  CE1       12.6730   25.1780  100.1230 C.ar  206  TYR206      0.0417
    128  CE2       14.4670   25.1030  101.7580 C.ar  206  TYR206      0.0417
    129  CZ        13.1480   25.3880  101.4170 C.ar  206  TYR206      0.1957
    130  OH        12.3000   25.8970  102.3770 O.3   206  TYR206     -0.2866
@<TRIPOS>BOND
     1     1     2    1
     2     3     2    1
     3     3     4    2
     4     2     5    1
     5     5     6    1
     6    43    42    2
     7     6     7   ar
     8     6     8   ar
     9    42    41    1
    10     7     9   ar
    11    46    47    1
    12     8    10   ar
    13    49    48    2
    14     9    10   ar
    15   121   122    2
    16   121   120    1
    17    58    57    1
    18    41    44    1
    19    41    40    1
    20    48    47    1
    21    48    53   am
    22    44    45    1
    23    47    50    1
    24    57    54    1
    25    54    53    1
    26    54    55    1
    27    50    52    1
    28    50    51    1
    29   120   123    1
    30   120   119    1
    31   123   124    1
    32   125   124   ar
    33   125   127   ar
    34    56    55    2
    35    55    59   am
    36   124   126   ar
    37   119   114   am
    38   127   129   ar
    39    65    67   ar
    40    65    64   ar
    41   115   114    2
    42    67    68   ar
    43    59    60    1
    44   114   113    1
    45   126   128   ar
    46   117   116    1
    47    64    63    1
    48    64    66   ar
    49   129   128   ar
    50   129   130    1
    51    63    60    1
    52    60    61    1
    53    68    66   ar
    54    68    70   ar
    55   113   116    1
    56   113   112    1
    57   116   118    1
    58    33    34    2
    59    33    32    1
    60    66    69   ar
    61    28    27    2
    62    70    72   ar
    63    23    24    1
    64    23    20    1
    65   112   110   am
    66    62    61    2
    67    61    73   am
    68    32    35    1
    69    32    31    1
    70    27    31   am
    71    27    26    1
    72   110   111    2
    73   110   109    1
    74    69    71   ar
    75    35    36    1
    76    72    71   ar
    77    73    74    1
    78    25    21   am
    79    25    26    1
    80    20    21    1
    81    20    19    1
    82    21    22    2
    83   109   108    1
    84    26    29    1
    85    36    37    1
    86    19    13   am
    87    74    75    1
    88    29    30    1
    89    37    39   am
    90    37    38    2
    91    76    75    2
    92    13    14    2
    93    13    12    1
    94    17    16   ar
    95    75    77   am
    96    30    98    1
    97    12    15    1
    98    12    11    1
    99    16    18   ar
   100    16    15    1
   101    98    97    1
   102    77    78    1
   103    85    83   ar
   104    85    87   ar
   105    92    91    2
   106    83    82   ar
   107    88    87    1
   108    78    79    1
   109    78    81    1
   110    87    86   ar
   111    97    94    1
   112    91    90    1
   113    91    93   am
   114    89    79   am
   115    89    90    1
   116    82    81    1
   117    82    84   ar
   118    94    93    1
   119    94    95    1
   120    79    80    2
   121   102   101    2
   122   101   100    1
   123    86    84   ar
   124    95    96    2
   125   100   103    1
   126   100    99    1
   127   103   104    1
   128   105   104    1
   129   105   106    1
   130   106   107    1
