@<TRIPOS>MOLECULE
tmp/1a0lA00.pdb
 150 149 0 0 0
SMALL
GASTEIGER

@<TRIPOS>ATOM
      1  N         61.3980   51.4950   88.1960 N.3    28  PHE28      -0.1227
      2  CA        60.5590   50.2920   88.0480 C.3    28  PHE28       0.1736
      3  C         59.2130   50.4750   87.3250 C.2    28  PHE28       0.2595
      4  O         58.4800   49.5080   87.0950 O.2    28  PHE28      -0.2718
      5  CB        60.3190   49.6340   89.4030 C.3    28  PHE28       0.0547
      6  CG        59.3370   50.3530   90.2810 C.ar   28  PHE28      -0.0202
      7  CD1       59.7170   51.4640   91.0110 C.ar   28  PHE28      -0.0042
      8  CD2       58.0590   49.8690   90.4380 C.ar   28  PHE28      -0.0042
      9  CE1       58.8520   52.0650   91.8960 C.ar   28  PHE28      -0.0003
     10  CE2       57.1910   50.4630   91.3140 C.ar   28  PHE28      -0.0003
     11  CZ        57.5900   51.5700   92.0470 C.ar   28  PHE28      -0.0000
     12  N         58.9160   51.7150   86.9530 N.am   29  CYS29      -0.1970
     13  CA        57.6780   52.0830   86.2760 C.3    29  CYS29       0.1712
     14  C         57.7140   53.5540   85.9660 C.2    29  CYS29       0.2296
     15  O         58.4660   54.3160   86.5670 O.2    29  CYS29      -0.2864
     16  CB        56.4920   51.8740   87.1940 C.3    29  CYS29       0.0983
     17  SG        55.8900   50.1790   87.2980 S.3    29  CYS29      -0.0798
     18  N         49.0430   48.4940   89.0730 N.3    44  HIS44      -0.1241
     19  CA        49.9030   47.3220   89.2160 C.3    44  HIS44       0.1621
     20  C         51.3510   47.6160   89.5830 C.2    44  HIS44       0.2264
     21  O         52.0840   46.7190   89.9860 O.2    44  HIS44      -0.2867
     22  CB        49.8100   46.3830   88.0040 C.3    44  HIS44       0.0745
     23  CG        50.7620   46.6970   86.8910 C.ar   44  HIS44       0.0817
     24  ND1       50.3710   47.3420   85.7400 N.ar   44  HIS44      -0.2268
     25  CD2       52.0710   46.3920   86.7210 C.ar   44  HIS44       0.1154
     26  CE1       51.3940   47.4170   84.9080 C.ar   44  HIS44       0.1986
     27  NE2       52.4370   46.8480   85.4800 N.ar   44  HIS44      -0.2212
     28  N         55.9330   49.0910   70.1760 N.3   188  ASP188     -0.1225
     29  CA        55.1270   48.8400   71.3650 C.3   188  ASP188      0.1805
     30  C         55.9050   49.2300   72.6180 C.2   188  ASP188      0.2598
     31  O         57.0700   49.5910   72.5340 O.2   188  ASP188     -0.2718
     32  CB        54.8160   47.3410   71.4140 C.3   188  ASP188      0.1424
     33  CG        53.9450   46.9430   72.5940 C.2   188  ASP188      0.3668
     34  OD1       53.1260   47.7750   73.0600 O.co2 188  ASP188     -0.2456
     35  OD2       54.0660   45.7760   73.0320 O.co2 188  ASP188     -0.2456
     36  N         55.2380   49.2390   73.7660 N.am  189  SER189     -0.1938
     37  CA        55.8920   49.5310   75.0380 C.3   189  SER189      0.2055
     38  C         56.4260   48.1800   75.5090 C.2   189  SER189      0.2643
     39  O         56.1370   47.1590   74.9070 O.2   189  SER189     -0.2714
     40  CB        54.9100   50.1200   76.0650 C.3   189  SER189      0.2130
     41  OG        53.9250   49.1900   76.4870 O.3   189  SER189     -0.2179
     42  N         57.2130   48.1540   76.5660 N.am  190  CYS190     -0.1953
     43  CA        57.7490   46.8980   77.0230 C.3   190  CYS190      0.1843
     44  C         57.9870   46.9970   78.5260 C.2   190  CYS190      0.2625
     45  O         57.5680   47.9650   79.1590 O.2   190  CYS190     -0.2714
     46  CB        59.0060   46.5500   76.2190 C.3   190  CYS190      0.0997
     47  SG        59.6410   44.8480   76.3990 S.3   190  CYS190     -0.0797
     48  N         58.5630   45.9570   79.1140 N.am  191  GLN191     -0.1963
     49  CA        58.8200   45.8980   80.5550 C.3   191  GLN191      0.1733
     50  C         59.4580   47.1670   81.0970 C.2   191  GLN191      0.2617
     51  O         60.4240   47.6540   80.5370 O.2   191  GLN191     -0.2715
     52  CB        59.7410   44.7190   80.8420 C.3   191  GLN191      0.0408
     53  CG        60.0860   44.5050   82.3010 C.3   191  GLN191      0.0908
     54  CD        58.9950   43.7790   83.0500 C.2   191  GLN191      0.2608
     55  OE1       58.1680   43.0840   82.4460 O.2   191  GLN191     -0.2717
     56  NE2       58.9740   43.9400   84.3760 N.am  191  GLN191     -0.0878
     57  N         58.9510   47.6890   82.2030 N.am  192  GLY192     -0.1940
     58  CA        59.5370   48.8940   82.7540 C.3   192  GLY192      0.2014
     59  C         58.8770   50.1670   82.2780 C.2   192  GLY192      0.2639
     60  O         59.1860   51.2470   82.7950 O.2   192  GLY192     -0.2714
     61  N         58.0350   50.0490   81.2490 N.am  193  ASP193     -0.1957
     62  CA        57.2730   51.1750   80.7110 C.3   193  ASP193      0.1840
     63  C         55.9330   51.3010   81.4380 C.2   193  ASP193      0.2622
     64  O         55.2850   52.3390   81.3550 O.2   193  ASP193     -0.2715
     65  CB        57.0060   51.0000   79.2160 C.3   193  ASP193      0.1450
     66  CG        58.2400   51.2080   78.3730 C.2   193  ASP193      0.3671
     67  OD1       59.1040   52.0300   78.7240 O.co2 193  ASP193     -0.2456
     68  OD2       58.3570   50.5430   77.3420 O.co2 193  ASP193     -0.2456
     69  N         55.5420   50.2490   82.1580 N.am  194  SER194     -0.1950
     70  CA        54.2980   50.2030   82.9180 C.3   194  SER194      0.1924
     71  C         54.1080   51.4480   83.7140 C.2   194  SER194      0.2314
     72  O         55.0600   51.9870   84.2580 O.2   194  SER194     -0.2863
     73  CB        54.2840   49.0240   83.8630 C.3   194  SER194      0.2116
     74  OG        53.9870   47.8410   83.1530 O.3   194  SER194     -0.2180
     75  N         50.1980   52.7330   80.3380 N.3   212  VAL212     -0.1231
     76  CA        50.7910   51.4390   80.0060 C.3   212  VAL212      0.1692
     77  C         50.4400   50.3630   81.0210 C.2   212  VAL212      0.2593
     78  O         51.0680   50.3050   82.0710 O.2   212  VAL212     -0.2718
     79  CB        52.3150   51.5420   79.9750 C.3   212  VAL212      0.0266
     80  CG1       52.9260   50.2450   79.4670 C.3   212  VAL212      0.0020
     81  CG2       52.7300   52.7040   79.1240 C.3   212  VAL212      0.0020
     82  N         49.4920   49.4850   80.6990 N.am  213  SER213     -0.1938
     83  CA        49.0860   48.4340   81.6380 C.3   213  SER213      0.2055
     84  C         49.7480   47.0440   81.4670 C.2   213  SER213      0.2643
     85  O         50.7010   46.7140   82.1820 O.2   213  SER213     -0.2714
     86  CB        47.5590   48.3120   81.6710 C.3   213  SER213      0.2130
     87  OG        47.1310   47.3510   82.6210 O.3   213  SER213     -0.2179
     88  N         49.2620   46.2360   80.5260 N.am  214  TRP214     -0.1959
     89  CA        49.8080   44.8950   80.3190 C.3   214  TRP214      0.1771
     90  C         49.9960   44.5230   78.8570 C.2   214  TRP214      0.2620
     91  O         50.0720   45.3970   77.9910 O.2   214  TRP214     -0.2715
     92  CB        48.9390   43.8360   81.0250 C.3   214  TRP214      0.0590
     93  CG        47.4610   43.7730   80.6230 C.ar  214  TRP214      0.0006
     94  CD1       46.4890   44.7070   80.8870 C.ar  214  TRP214      0.0946
     95  CD2       46.8040   42.6980   79.9500 C.ar  214  TRP214      0.0152
     96  NE1       45.2740   44.2690   80.4230 N.ar  214  TRP214     -0.2442
     97  CE2       45.4410   43.0410   79.8380 C.ar  214  TRP214      0.0810
     98  CE3       47.2310   41.4760   79.4300 C.ar  214  TRP214      0.0012
     99  CZ2       44.5090   42.2040   79.2260 C.ar  214  TRP214      0.0191
    100  CZ3       46.3040   40.6460   78.8230 C.ar  214  TRP214      0.0001
    101  CH2       44.9610   41.0130   78.7250 C.ar  214  TRP214      0.0015
    102  N         50.0960   43.2210   78.6000 N.am  215  GLY215     -0.1954
    103  CA        50.2800   42.7150   77.2510 C.3   215  GLY215      0.1869
    104  C         50.8390   41.3120   77.3500 C.2   215  GLY215      0.2309
    105  O         51.2030   40.8800   78.4490 O.2   215  GLY215     -0.2863
    106  N         53.7130   40.0060   76.4220 N.3   217  GLY217     -0.1210
    107  CA        55.0860   40.1180   75.9600 C.3   217  GLY217      0.1956
    108  C         55.3000   41.4820   75.3230 C.2   217  GLY217      0.2612
    109  O         54.5430   42.4110   75.5980 O.2   217  GLY217     -0.2717
    110  N         56.3330   41.6210   74.4980 N.am  218  CYS218     -0.1970
    111  CA        56.6140   42.8940   73.8380 C.3   218  CYS218      0.1712
    112  C         56.6970   42.7460   72.3210 C.2   218  CYS218      0.2296
    113  O         57.4270   41.8990   71.8230 O.2   218  CYS218     -0.2864
    114  CB        57.9320   43.4700   74.3500 C.3   218  CYS218      0.0983
    115  SG        58.0410   43.6320   76.1540 S.3   218  CYS218     -0.0798
    116  N         49.1600   40.2230   69.7840 N.3   223  ARG223     -0.1245
    117  CA        49.0900   40.4960   71.2040 C.3   223  ARG223      0.1563
    118  C         49.4890   41.9480   71.3580 C.2   223  ARG223      0.2260
    119  O         50.5840   42.2550   71.8400 O.2   223  ARG223     -0.2867
    120  CB        50.0890   39.6060   71.9390 C.3   223  ARG223      0.0307
    121  CG        49.7900   38.1150   71.8310 C.3   223  ARG223      0.0489
    122  CD        48.3880   37.7920   72.3310 C.3   223  ARG223      0.2205
    123  NE        48.1460   36.3550   72.3900 N.pl3 223  ARG223     -0.0865
    124  CZ        47.4430   35.6580   71.5020 C.cat 223  ARG223      0.5346
    125  NH1       46.8940   36.2580   70.4450 N.pl3 223  ARG223      0.1354
    126  NH2       47.2450   34.3600   71.7090 N.pl3 223  ARG223      0.1354
    127  N         49.5910   45.9510   72.6580 N.3   225  GLY225     -0.1210
    128  CA        49.7070   46.4890   73.9980 C.3   225  GLY225      0.1956
    129  C         48.3830   46.9300   74.5900 C.2   225  GLY225      0.2612
    130  O         47.5670   47.5530   73.9010 O.2   225  GLY225     -0.2717
    131  N         48.1540   46.5960   75.8590 N.am  226  ILE226     -0.1965
    132  CA        46.9230   46.9940   76.5340 C.3   226  ILE226      0.1727
    133  C         47.2520   48.1620   77.4680 C.2   226  ILE226      0.2616
    134  O         48.2480   48.1410   78.1840 O.2   226  ILE226     -0.2715
    135  CB        46.3130   45.8360   77.3450 C.3   226  ILE226      0.0290
    136  CG1       46.2910   44.5570   76.5010 C.3   226  ILE226      0.0022
    137  CG2       44.9070   46.1980   77.8010 C.3   226  ILE226      0.0023
    138  CD1       45.5820   44.6990   75.1660 C.3   226  ILE226      0.0001
    139  N         46.4540   49.2110   77.4130 N.am  227  TYR227     -0.1974
    140  CA        46.6760   50.3810   78.2460 C.3   227  TYR227      0.1639
    141  C         45.3560   50.6560   78.9630 C.2   227  TYR227      0.2290
    142  O         44.2940   50.2260   78.5030 O.2   227  TYR227     -0.2864
    143  CB        47.0380   51.5890   77.3710 C.3   227  TYR227      0.0560
    144  CG        48.2410   51.4100   76.4730 C.ar  227  TYR227     -0.0198
    145  CD1       48.2490   50.4590   75.4610 C.ar  227  TYR227     -0.0009
    146  CD2       49.3830   52.1810   76.6570 C.ar  227  TYR227     -0.0009
    147  CE1       49.3670   50.2780   74.6580 C.ar  227  TYR227      0.0417
    148  CE2       50.5070   52.0120   75.8620 C.ar  227  TYR227      0.0417
    149  CZ        50.4970   51.0580   74.8670 C.ar  227  TYR227      0.1957
    150  OH        51.6220   50.8730   74.0880 O.3   227  TYR227     -0.2866
@<TRIPOS>BOND
     1   116   117    1
     2    28    29    1
     3   125   124    1
     4   117   118    1
     5   117   120    1
     6   118   119    2
     7    29    32    1
     8    29    30    1
     9    32    33    1
    10   124   126    1
    11   124   123    2
    12   113   112    2
    13   121   120    1
    14   121   122    1
    15   112   111    1
    16   122   123    1
    17    31    30    2
    18    33    35   ar
    19    33    34   ar
    20    30    36   am
    21   127   128    1
    22    36    37    1
    23   111   114    1
    24   111   110    1
    25   130   129    2
    26   128   129    1
    27   150   149    1
    28   114   115    1
    29   110   108   am
    30   129   131   am
    31   147   149   ar
    32   147   145   ar
    33   149   148   ar
    34    39    38    2
    35    37    38    1
    36    37    40    1
    37   138   136    1
    38   108   109    2
    39   108   107    1
    40   145   144   ar
    41    38    42   am
    42   131   132    1
    43   148   146   ar
    44   107   106    1
    45    40    41    1
    46   115    47    1
    47    46    47    1
    48    46    43    1
    49   144   146   ar
    50   144   143    1
    51   136   135    1
    52   132   135    1
    53   132   133    1
    54    42    43    1
    55    43    44    1
    56   103   104    1
    57   103   102    1
    58    68    66   ar
    59   135   137    1
    60   104   105    2
    61   143   140    1
    62   139   133   am
    63   139   140    1
    64   133   134    2
    65    91    90    2
    66   140   141    1
    67    66    67   ar
    68    66    65    1
    69   142   141    2
    70    44    48   am
    71    44    45    2
    72   102    90   am
    73   101   100   ar
    74   101    99   ar
    75   100    98   ar
    76    90    89    1
    77    48    49    1
    78    81    79    1
    79    65    62    1
    80    99    97   ar
    81    98    95   ar
    82    80    79    1
    83    97    95   ar
    84    97    96   ar
    85    95    93   ar
    86    79    76    1
    87    76    75    1
    88    76    77    1
    89    89    88    1
    90    89    92    1
    91    96    94   ar
    92    88    84   am
    93    51    50    2
    94    49    52    1
    95    49    50    1
    96    93    94   ar
    97    93    92    1
    98    82    77   am
    99    82    83    1
   100    62    61    1
   101    62    63    1
   102    52    53    1
   103    77    78    2
   104    50    57   am
   105    61    59   am
   106    64    63    2
   107    63    69   am
   108    84    83    1
   109    84    85    2
   110    83    86    1
   111    86    87    1
   112    69    70    1
   113    57    58    1
   114    59    58    1
   115    59    60    2
   116    53    54    1
   117    55    54    2
   118    70    71    1
   119    70    73    1
   120    54    56   am
   121    74    73    1
   122    71    72    2
   123    26    27   ar
   124    26    24   ar
   125    27    25   ar
   126    24    23   ar
   127    14    13    1
   128    14    15    2
   129    13    12    1
   130    13    16    1
   131    25    23   ar
   132    23    22    1
   133    12     3   am
   134     4     3    2
   135    16    17    1
   136     3     2    1
   137    22    19    1
   138     2     1    1
   139     2     5    1
   140    18    19    1
   141    19    20    1
   142     5     6    1
   143    20    21    2
   144     6     8   ar
   145     6     7   ar
   146     8    10   ar
   147     7     9   ar
   148    10    11   ar
   149     9    11   ar
