@<TRIPOS>MOLECULE
tmp/1a0rA00.pdb
 116 110 0 0 0
SMALL
GASTEIGER

@<TRIPOS>ATOM
      1  N          4.9550   20.3650   25.3200 N.3    49  THR49      -0.1218
      2  CA         5.2210   21.1400   26.5220 C.3    49  THR49       0.1862
      3  C          5.5150   20.1400   27.6330 C.2    49  THR49       0.2287
      4  O          4.6730   19.3030   27.9680 O.2    49  THR49      -0.2866
      5  CB         4.0120   22.0070   26.9140 C.3    49  THR49       0.1770
      6  OG1        3.6290   22.8190   25.7980 O.3    49  THR49      -0.2211
      7  CG2        4.3570   22.9060   28.0970 C.3    49  THR49       0.0375
      8  N          5.8890   19.3170   31.2820 N.3    51  ARG51      -0.1245
      9  CA         5.4890   19.7620   32.6130 C.3    51  ARG51       0.1563
     10  C          6.0070   18.8060   33.6820 C.2    51  ARG51       0.2260
     11  O          5.7300   17.6070   33.6290 O.2    51  ARG51      -0.2867
     12  CB         3.9620   19.8390   32.7020 C.3    51  ARG51       0.0307
     13  CG         3.3190   20.7400   31.6630 C.3    51  ARG51       0.0489
     14  CD         1.8070   20.7800   31.8260 C.3    51  ARG51       0.2205
     15  NE         1.1780   21.7150   30.8950 N.pl3  51  ARG51      -0.0865
     16  CZ         1.0390   21.5000   29.5900 C.cat  51  ARG51       0.5346
     17  NH1        1.4830   20.3760   29.0420 N.pl3  51  ARG51       0.1354
     18  NH2        0.4560   22.4140   28.8280 N.pl3  51  ARG51       0.1354
     19  N         10.4850   31.8390   20.0910 N.3   308  ALA308     -0.1245
     20  CA         9.6730   32.1490   21.2650 C.3   308  ALA308      0.1562
     21  C          9.1480   33.5850   21.2830 C.2   308  ALA308      0.2260
     22  O          8.8950   34.1420   22.3510 O.2   308  ALA308     -0.2867
     23  CB        10.4480   31.8450   22.5430 C.3   308  ALA308      0.0290
     24  N          9.2240   36.3220   24.2440 N.3   311  ASP311     -0.1239
     25  CA         8.3810   36.2670   25.4370 C.3   311  ASP311      0.1674
     26  C          9.1620   36.3250   26.7540 C.2   311  ASP311      0.2266
     27  O          8.5940   36.0910   27.8220 O.2   311  ASP311     -0.2867
     28  CB         7.4800   35.0230   25.4110 C.3   311  ASP311      0.1410
     29  CG         8.2540   33.7270   25.1830 C.2   311  ASP311      0.3668
     30  OD1        9.4600   33.6620   25.5030 O.co2 311  ASP311     -0.2456
     31  OD2        7.6450   32.7640   24.6740 O.co2 311  ASP311     -0.2456
     32  N         11.2530   34.2780   28.0670 N.3   313  ARG313     -0.1231
     33  CA        11.1450   33.0160   28.7910 C.3   313  ARG313      0.1694
     34  C         12.0420   31.8950   28.2830 C.2   313  ARG313      0.2591
     35  O         11.6260   30.7380   28.2490 O.2   313  ARG313     -0.2718
     36  CB         9.6790   32.5490   28.8220 C.3   313  ARG313      0.0321
     37  CG         8.7970   33.3770   29.7440 C.3   313  ARG313      0.0489
     38  CD         7.2970   33.2170   29.5210 C.3   313  ARG313      0.2205
     39  NE         6.5830   34.1390   30.4000 N.pl3 313  ARG313     -0.0865
     40  CZ         5.8260   33.7740   31.4380 C.cat 313  ARG313      0.5346
     41  NH1        5.6440   32.5020   31.7430 N.pl3 313  ARG313      0.1354
     42  NH2        5.2860   34.7190   32.1950 N.pl3 313  ARG313      0.1354
     43  N         13.2700   32.2310   27.8990 N.am  314  VAL314     -0.1980
     44  CA        14.2190   31.2290   27.4190 C.3   314  VAL314      0.1595
     45  C         15.4880   31.2480   28.2640 C.2   314  VAL314      0.2287
     46  O         16.3220   32.1490   28.1300 O.2   314  VAL314     -0.2864
     47  CB        14.6130   31.4630   25.9430 C.3   314  VAL314      0.0276
     48  CG1       15.5670   30.3740   25.4800 C.3   314  VAL314      0.0022
     49  CG2       13.3820   31.4930   25.0600 C.3   314  VAL314      0.0022
     50  N         13.5170   24.3120   24.4850 N.3   328  THR328     -0.1203
     51  CA        13.8140   25.4880   25.2910 C.3   328  THR328      0.1994
     52  C         13.3410   25.2970   26.7190 C.2   328  THR328      0.2618
     53  O         12.3250   24.6460   26.9650 O.2   328  THR328     -0.2717
     54  CB        13.1330   26.7540   24.7290 C.3   328  THR328      0.1784
     55  OG1       11.7280   26.5180   24.5630 O.3   328  THR328     -0.2211
     56  CG2       13.7490   27.1570   23.3960 C.3   328  THR328      0.0376
     57  N         14.1080   25.8360   27.6580 N.am  329  GLY329     -0.1942
     58  CA        13.7490   25.7510   29.0600 C.3   329  GLY329      0.2014
     59  C         13.4290   27.1570   29.5220 C.2   329  GLY329      0.2639
     60  O         13.7940   28.1260   28.8510 O.2   329  GLY329     -0.2714
     61  N         12.7580   27.2860   30.6590 N.am  330  SER330     -0.1949
     62  CA        12.4120   28.6020   31.1710 C.3   330  SER330      0.1924
     63  C         12.4590   28.6950   32.6860 C.2   330  SER330      0.2314
     64  O         12.5420   27.6860   33.3900 O.2   330  SER330     -0.2863
     65  CB        11.0250   29.0090   30.6790 C.3   330  SER330      0.2116
     66  OG        10.5920   30.2180   31.2790 O.3   330  SER330     -0.2180
     67  N         10.0780   29.4770   34.4790 N.3   332  ASP332     -0.1239
     68  CA         8.7920   29.0180   35.0000 C.3   332  ASP332      0.1674
     69  C          8.6230   27.5000   35.0590 C.2   332  ASP332      0.2266
     70  O          7.5000   27.0010   35.0300 O.2   332  ASP332     -0.2867
     71  CB         7.6300   29.6550   34.2240 C.3   332  ASP332      0.1410
     72  CG         7.7600   29.4940   32.7160 C.2   332  ASP332      0.3668
     73  OD1        8.0510   28.3750   32.2430 O.co2 332  ASP332     -0.2456
     74  OD2        7.5650   30.4950   31.9990 O.co2 332  ASP332     -0.2456
     75  N          8.8100   25.1770   32.9180 N.3   334  PHE334     -0.1227
     76  CA         8.3570   24.4620   31.7270 C.3   334  PHE334      0.1736
     77  C          9.3710   24.4440   30.5910 C.2   334  PHE334      0.2595
     78  O         10.1980   25.3500   30.4720 O.2   334  PHE334     -0.2718
     79  CB         7.0420   25.0540   31.2150 C.3   334  PHE334      0.0547
     80  CG         5.9110   24.9620   32.1960 C.ar  334  PHE334     -0.0202
     81  CD1        5.1860   23.7850   32.3310 C.ar  334  PHE334     -0.0042
     82  CD2        5.5710   26.0530   32.9890 C.ar  334  PHE334     -0.0042
     83  CE1        4.1400   23.6960   33.2410 C.ar  334  PHE334     -0.0003
     84  CE2        4.5250   25.9730   33.9030 C.ar  334  PHE334     -0.0003
     85  CZ         3.8090   24.7920   34.0280 C.ar  334  PHE334     -0.0000
     86  N          9.3100   23.3920   29.7780 N.am  335  LEU335     -0.1966
     87  CA        10.1780   23.2310   28.6170 C.3   335  LEU335      0.1728
     88  C          9.2680   23.0710   27.4090 C.2   335  LEU335      0.2616
     89  O          8.1710   22.5220   27.5250 O.2   335  LEU335     -0.2715
     90  CB        11.0700   21.9940   28.7540 C.3   335  LEU335      0.0311
     91  CG        12.2140   22.0620   29.7650 C.3   335  LEU335      0.0022
     92  CD1       11.9540   21.1010   30.9170 C.3   335  LEU335      0.0001
     93  CD2       13.5230   21.7280   29.0690 C.3   335  LEU335      0.0001
     94  N          9.7110   23.5620   26.2600 N.am  336  LYS336     -0.1977
     95  CA         8.9200   23.4680   25.0410 C.3   336  LYS336      0.1596
     96  C          9.7530   22.9780   23.8720 C.2   336  LYS336      0.2287
     97  O         10.9530   23.2450   23.7970 O.2   336  LYS336     -0.2864
     98  CB         8.3120   24.8270   24.6950 C.3   336  LYS336      0.0298
     99  CG         7.1580   25.2470   25.5800 C.3   336  LYS336      0.0038
    100  CD         6.6870   26.6360   25.2060 C.3   336  LYS336      0.0206
    101  CE         5.4200   27.0140   25.9410 C.3   336  LYS336      0.1093
    102  NZ         5.1150   28.4580   25.7680 N.3   336  LYS336     -0.1314
    103  N         10.0960   23.0210   19.7650 N.3   338  TRP338     -0.1241
    104  CA         9.6910   23.8460   18.6280 C.3   338  TRP338      0.1605
    105  C         10.2130   23.2960   17.3090 C.2   338  TRP338      0.2264
    106  O         11.2660   22.6550   17.2790 O.2   338  TRP338     -0.2867
    107  CB        10.2400   25.2700   18.7900 C.3   338  TRP338      0.0550
    108  CG        10.0220   25.8820   20.1400 C.ar  338  TRP338      0.0003
    109  CD1       10.6130   25.5100   21.3110 C.ar  338  TRP338      0.0946
    110  CD2        9.1570   26.9790   20.4580 C.ar  338  TRP338      0.0152
    111  NE1       10.1680   26.3020   22.3380 N.ar  338  TRP338     -0.2442
    112  CE2        9.2760   27.2160   21.8440 C.ar  338  TRP338      0.0810
    113  CE3        8.2940   27.7890   19.7040 C.ar  338  TRP338      0.0012
    114  CZ2        8.5650   28.2290   22.4950 C.ar  338  TRP338      0.0191
    115  CZ3        7.5850   28.7950   20.3530 C.ar  338  TRP338      0.0001
    116  CH2        7.7260   29.0040   21.7350 C.ar  338  TRP338      0.0015
@<TRIPOS>BOND
     1   106   105    2
     2   105   104    1
     3   104   107    1
     4   104   103    1
     5   107   108    1
     6   113   115   ar
     7   113   110   ar
     8    19    20    1
     9   108   110   ar
    10   108   109   ar
    11   115   116   ar
    12   110   112   ar
    13    20    21    1
    14    20    23    1
    15    21    22    2
    16   109   111   ar
    17   116   114   ar
    18   112   111   ar
    19   112   114   ar
    20    56    54    1
    21    97    96    2
    22    96    95    1
    23    24    25    1
    24    50    51    1
    25    55    54    1
    26    31    29   ar
    27    98    95    1
    28    98    99    1
    29    54    51    1
    30    95    94    1
    31    49    47    1
    32    29    28    1
    33    29    30   ar
    34   100    99    1
    35   100   101    1
    36    51    52    1
    37     1     2    1
    38    28    25    1
    39    25    26    1
    40    48    47    1
    41   102   101    1
    42     6     5    1
    43    47    44    1
    44    94    88   am
    45     2     5    1
    46     2     3    1
    47    52    53    2
    48    52    57   am
    49    26    27    2
    50     5     7    1
    51    88    89    2
    52    88    87    1
    53    44    43    1
    54    44    45    1
    55     3     4    2
    56    57    58    1
    57    43    34   am
    58    32    33    1
    59    46    45    2
    60    35    34    2
    61    34    33    1
    62    87    90    1
    63    87    86    1
    64    90    91    1
    65    33    36    1
    66    36    37    1
    67    18    16    1
    68    60    59    2
    69    17    16    1
    70    58    59    1
    71    93    91    1
    72    38    37    1
    73    38    39    1
    74    59    61   am
    75    16    15    2
    76    91    92    1
    77    86    77   am
    78    39    40    2
    79    78    77    2
    80    77    76    1
    81    61    62    1
    82    65    62    1
    83    65    66    1
    84    15    14    1
    85    62    63    1
    86    79    76    1
    87    79    80    1
    88     8     9    1
    89    40    41    1
    90    40    42    1
    91    13    14    1
    92    13    12    1
    93    76    75    1
    94    74    72   ar
    95    80    81   ar
    96    80    82   ar
    97    73    72   ar
    98    81    83   ar
    99     9    12    1
   100     9    10    1
   101    63    64    2
   102    72    71    1
   103    82    84   ar
   104    83    85   ar
   105    11    10    2
   106    84    85   ar
   107    71    68    1
   108    67    68    1
   109    68    69    1
   110    70    69    2
