@<TRIPOS>MOLECULE
tmp/1a16A00.pdb
 97 92 0 0 0
SMALL
GASTEIGER

@<TRIPOS>ATOM
      1  N         59.6220   44.5710   59.6090 N.3   241  LEU241     -0.1231
      2  CA        60.1410   45.2930   58.4540 C.3   241  LEU241      0.1693
      3  C         61.0040   46.4800   58.7880 C.2   241  LEU241      0.2592
      4  O         62.1110   46.6010   58.2660 O.2   241  LEU241     -0.2718
      5  CB        59.0110   45.7100   57.5110 C.3   241  LEU241      0.0284
      6  CG        58.1310   44.5840   56.9620 C.3   241  LEU241      0.0019
      7  CD1       57.2150   45.1400   55.8960 C.3   241  LEU241      0.0001
      8  CD2       58.9740   43.4700   56.3980 C.3   241  LEU241      0.0001
      9  N         60.5090   47.3500   59.6610 N.am  242  HIS242     -0.1976
     10  CA        61.2670   48.5330   60.0540 C.3   242  HIS242      0.1656
     11  C         61.6090   48.5320   61.5430 C.2   242  HIS242      0.2291
     12  O         61.3330   49.4990   62.2610 O.2   242  HIS242     -0.2864
     13  CB        60.5050   49.8160   59.7020 C.3   242  HIS242      0.0771
     14  CG        60.1670   49.9470   58.2520 C.ar  242  HIS242      0.0820
     15  ND1       59.1700   50.7810   57.7960 N.ar  242  HIS242     -0.2267
     16  CD2       60.6960   49.3680   57.1480 C.ar  242  HIS242      0.1154
     17  CE1       59.1010   50.7110   56.4820 C.ar  242  HIS242      0.1986
     18  NE2       60.0170   49.8590   56.0660 N.ar  242  HIS242     -0.2212
     19  N         69.1450   47.0290   57.2160 N.3   259  ASP259     -0.1295
     20  CA        68.5020   47.8420   56.3790 C.3   259  ASP259      0.1359
     21  C         69.1230   49.0720   56.6270 C.3   259  ASP259      0.2015
     22  O         68.5830   49.7730   57.6690 O.3   259  ASP259     -0.2188
     23  CB        67.1370   47.6130   56.2680 C.3   259  ASP259      0.1357
     24  CG        66.5750   48.2560   55.1390 C.2   259  ASP259      0.3664
     25  OD1       67.2640   49.2260   54.4270 O.co2 259  ASP259     -0.2456
     26  OD2       65.5030   48.1020   54.6790 O.co2 259  ASP259     -0.2456
     27  N         70.0980   52.6540   49.9640 N.2   270  ASP270     -0.1487
     28  CA        69.0890   52.0550   50.4750 C.2   270  ASP270      0.1338
     29  C         69.4970   50.6400   50.3600 C.2   270  ASP270      0.2511
     30  O         68.9160   49.9400   49.4780 O.2   270  ASP270     -0.2817
     31  CB        67.7680   52.5770   50.2830 C.3   270  ASP270      0.1649
     32  CG        66.5070   51.7330   50.8580 C.2   270  ASP270      0.3710
     33  OD1       66.8750   50.8320   51.8780 O.co2 270  ASP270     -0.2452
     34  OD2       65.3430   51.7270   50.4110 O.co2 270  ASP270     -0.2452
     35  N         55.2420   43.2950   51.4380 N.3   349  HIS349     -0.1226
     36  CA        55.5470   44.6410   50.9570 C.3   349  HIS349      0.1752
     37  C         55.7980   44.6470   49.4450 C.2   349  HIS349      0.2596
     38  O         55.6740   43.6160   48.7780 O.2   349  HIS349     -0.2718
     39  CB        56.7230   45.2770   51.7340 C.3   349  HIS349      0.0759
     40  CG        58.0290   44.5400   51.6180 C.ar  349  HIS349      0.0818
     41  ND1       58.4780   43.6570   52.5800 N.ar  349  HIS349     -0.2268
     42  CD2       59.0010   44.5900   50.6750 C.ar  349  HIS349      0.1154
     43  CE1       59.6680   43.1950   52.2330 C.ar  349  HIS349      0.1986
     44  NE2       60.0090   43.7450   51.0820 N.ar  349  HIS349     -0.2212
     45  N         56.0510   45.8260   48.8990 N.am  350  GLY350     -0.1957
     46  CA        56.3190   45.9310   47.4740 C.3   350  GLY350      0.1869
     47  C         57.7580   45.5660   47.1550 C.2   350  GLY350      0.2309
     48  O         58.6340   45.6200   48.0340 O.2   350  GLY350     -0.2863
     49  N         60.8470   50.6690   45.2380 N.3   353  HIS353     -0.1301
     50  CA        60.0250   51.8780   45.2990 C.3   353  HIS353      0.1261
     51  C         61.4280   52.8790   44.5640 C.3   353  HIS353      0.2010
     52  O         62.4400   52.2150   44.4730 O.3   353  HIS353     -0.2188
     53  CB        59.7400   52.5830   46.8300 C.3   353  HIS353      0.0406
     54  CG        61.0310   52.2500   47.8270 C.3   353  HIS353      0.0933
     55  ND1       62.0150   53.2470   47.7730 N.3   353  HIS353     -0.1997
     56  CD2       61.4370   51.3020   48.4060 C.3   353  HIS353      0.1077
     57  CE1       63.1380   52.8150   48.4700 C.3   353  HIS353      0.1782
     58  NE2       62.7230   51.7000   49.1440 N.3   353  HIS353     -0.1983
     59  N         61.9190   56.9590   49.9440 N.3   360  HIS360     -0.1241
     60  CA        60.6830   56.5620   49.2570 C.3   360  HIS360      0.1621
     61  C         60.4330   57.8260   48.4290 C.2   360  HIS360      0.2264
     62  O         59.7510   58.7720   48.8560 O.2   360  HIS360     -0.2867
     63  CB        59.5310   56.2760   50.2350 C.3   360  HIS360      0.0745
     64  CG        59.7530   55.0640   51.0900 C.ar  360  HIS360      0.0817
     65  ND1       59.0580   54.8420   52.2620 N.ar  360  HIS360     -0.2268
     66  CD2       60.6180   54.0270   50.9670 C.ar  360  HIS360      0.1154
     67  CE1       59.4920   53.7250   52.8210 C.ar  360  HIS360      0.1986
     68  NE2       60.4360   53.2100   52.0600 N.ar  360  HIS360     -0.2212
     69  N         63.7920   44.8180   46.3530 N.3   382  GLU382     -0.1196
     70  CA        64.1350   44.3540   47.8480 C.3   382  GLU382      0.1783
     71  C         62.9290   43.2780   48.1970 C.2   382  GLU382      0.2306
     72  O         62.1490   43.4480   48.8190 O.2   382  GLU382     -0.2863
     73  CB        63.9450   45.2960   48.6360 C.2   382  GLU382      0.0071
     74  CG        62.6290   46.3850   48.6180 C.2   382  GLU382      0.0834
     75  CD        62.7140   47.4840   49.5000 C.2   382  GLU382      0.3877
     76  OE1       62.9860   47.0770   50.9030 O.co2 382  GLU382     -0.2406
     77  OE2       62.7450   48.6530   49.4960 O.co2 382  GLU382     -0.2406
     78  N         65.6700   39.7250   53.8670 N.3   403  ARG403     -0.1245
     79  CA        65.4180   40.6870   52.8190 C.3   403  ARG403      0.1563
     80  C         66.7720   41.0210   52.2270 C.2   403  ARG403      0.2260
     81  O         67.7730   41.0530   52.9500 O.2   403  ARG403     -0.2867
     82  CB        64.7460   41.9480   53.3440 C.3   403  ARG403      0.0307
     83  CG        64.7000   43.0540   52.3100 C.3   403  ARG403      0.0489
     84  CD        63.6930   44.1400   52.6490 C.3   403  ARG403      0.2205
     85  NE        64.1110   45.0150   53.7440 N.pl3 403  ARG403     -0.0865
     86  CZ        63.6060   44.9820   54.9790 C.cat 403  ARG403      0.5346
     87  NH1       62.6820   44.0820   55.3090 N.pl3 403  ARG403      0.1354
     88  NH2       64.0470   45.8400   55.8910 N.pl3 403  ARG403      0.1354
     89  N         68.3850   43.7640   49.3580 N.3   405  GLU405     -0.1301
     90  CA        67.8250   44.9490   48.7270 C.3   405  GLU405      0.1252
     91  C         68.9970   45.7070   48.0270 C.3   405  GLU405      0.2009
     92  O         70.1240   45.9250   48.6430 O.3   405  GLU405     -0.2188
     93  CB        67.2350   46.0190   49.6710 C.3   405  GLU405      0.0335
     94  CG        67.0020   47.3580   49.1200 C.3   405  GLU405      0.1156
     95  CD        66.2480   48.1310   49.9930 C.2   405  GLU405      0.3649
     96  OE1       66.3500   47.8440   51.3360 O.co2 405  GLU405     -0.2457
     97  OE2       65.2490   49.0970   49.6580 O.co2 405  GLU405     -0.2457
@<TRIPOS>BOND
     1    52    51    1
     2    51    50    1
     3    49    50    1
     4    50    53    1
     5    69    70    1
     6    53    54    1
     7    47    46    1
     8    47    48    2
     9    46    45    1
    10    55    54    1
    11    55    57    1
    12    54    56    1
    13    70    71    1
    14    70    73    1
    15    91    92    1
    16    91    90    1
    17    71    72    2
    18    56    58    1
    19    61    62    2
    20    61    60    1
    21    57    58    1
    22    74    73    2
    23    74    75    1
    24    90    89    1
    25    90    93    1
    26    38    37    2
    27    45    37   am
    28    94    93    1
    29    94    95    1
    30    60    59    1
    31    60    63    1
    32    37    36    1
    33    30    29    2
    34    77    75   ar
    35    75    76   ar
    36    97    95   ar
    37    27    28    2
    38    95    96   ar
    39    63    64    1
    40    31    28    1
    41    31    32    1
    42    29    28    1
    43    34    32   ar
    44    42    44   ar
    45    42    40   ar
    46    32    33   ar
    47    36    35    1
    48    36    39    1
    49    66    64   ar
    50    66    68   ar
    51    44    43   ar
    52    64    65   ar
    53    40    39    1
    54    40    41   ar
    55    68    67   ar
    56    80    79    1
    57    80    81    2
    58    43    41   ar
    59    65    67   ar
    60    83    84    1
    61    83    82    1
    62    84    85    1
    63    79    82    1
    64    79    78    1
    65    85    86    2
    66    25    24   ar
    67    26    24   ar
    68    86    87    1
    69    86    88    1
    70    24    23    1
    71     7     6    1
    72    18    17   ar
    73    18    16   ar
    74    23    20    1
    75    20    21    1
    76    20    19    1
    77     8     6    1
    78    17    15   ar
    79    21    22    1
    80     6     5    1
    81    16    14   ar
    82     5     2    1
    83    15    14   ar
    84    14    13    1
    85     4     3    2
    86     2     3    1
    87     2     1    1
    88     3     9   am
    89     9    10    1
    90    13    10    1
    91    10    11    1
    92    11    12    2
