@<TRIPOS>MOLECULE
tmp/1a1cB01.pdb
 125 120 0 0 0
SMALL
GASTEIGER

@<TRIPOS>ATOM
      1  N         43.0430   -0.5870   30.9140 N.3    13  ARG13      -0.1245
      2  CA        43.9650   -1.0020   31.9660 C.3    13  ARG13       0.1563
      3  C         45.4360   -0.6840   31.6210 C.2    13  ARG13       0.2260
      4  O         46.1980   -0.2480   32.4970 O.2    13  ARG13      -0.2867
      5  CB        43.8830   -2.5670   32.2520 C.3    13  ARG13       0.0307
      6  CG        45.0840   -3.1090   33.0460 C.3    13  ARG13       0.0489
      7  CD        45.0740   -4.5940   33.2270 C.3    13  ARG13       0.2205
      8  NE        43.9840   -4.9750   34.0890 N.pl3  13  ARG13      -0.0865
      9  CZ        44.2460   -5.6120   35.2390 C.cat  13  ARG13       0.5346
     10  NH1       45.5030   -5.9430   35.6210 N.pl3  13  ARG13       0.1354
     11  NH2       43.2230   -5.7700   36.1110 N.pl3  13  ARG13       0.1354
     12  N         38.6830    4.8230   36.9910 N.3    33  ARG33      -0.1245
     13  CA        38.3630    4.6950   35.5950 C.3    33  ARG33       0.1563
     14  C         37.2490    3.6940   35.5060 C.2    33  ARG33       0.2260
     15  O         36.8100    3.1640   36.5260 O.2    33  ARG33      -0.2867
     16  CB        39.5740    4.1880   34.8320 C.3    33  ARG33       0.0307
     17  CG        40.2340    3.0190   35.4640 C.3    33  ARG33       0.0489
     18  CD        41.0300    2.3970   34.4080 C.3    33  ARG33       0.2205
     19  NE        41.7070    1.2040   34.8600 N.pl3  33  ARG33      -0.0865
     20  CZ        41.2560   -0.0180   34.5400 C.cat  33  ARG33       0.5346
     21  NH1       40.1580   -0.1820   33.8020 N.pl3  33  ARG33       0.1354
     22  NH2       41.9930   -1.0730   34.9350 N.pl3  33  ARG33       0.1354
     23  N         35.6000   -0.0630   34.3520 N.3    35  SER35      -0.1202
     24  CA        36.1220   -1.3850   34.0880 C.3    35  SER35       0.2020
     25  C         35.8180   -1.6640   32.6190 C.2    35  SER35       0.2619
     26  O         34.7300   -1.3860   32.1550 O.2    35  SER35      -0.2717
     27  CB        35.4190   -2.4580   34.9230 C.3    35  SER35       0.2103
     28  OG        36.2030   -3.6460   34.7800 O.3    35  SER35      -0.2182
     29  N         36.8030   -2.1080   31.8320 N.am   36  GLU36      -0.1965
     30  CA        36.5680   -2.5310   30.4510 C.3    36  GLU36       0.1733
     31  C         35.7890   -3.8740   30.4260 C.2    36  GLU36       0.2617
     32  O         34.7780   -4.1390   29.7540 O.2    36  GLU36      -0.2715
     33  CB        37.9410   -2.7340   29.7740 C.3    36  GLU36       0.0429
     34  CG        38.9640   -1.5910   29.6670 C.3    36  GLU36       0.1163
     35  CD        40.2540   -2.0370   29.0300 C.2    36  GLU36       0.3649
     36  OE1       40.3200   -2.1800   27.8410 O.co2  36  GLU36      -0.2457
     37  OE2       41.2050   -2.2630   29.7420 O.co2  36  GLU36      -0.2457
     38  N         36.3230   -4.7320   31.2970 N.am   37  THR37      -0.1951
     39  CA        35.8980   -6.0980   31.4460 C.3    37  THR37       0.1897
     40  C         34.4950   -6.2450   31.9740 C.2    37  THR37       0.2313
     41  O         33.7130   -6.9920   31.3860 O.2    37  THR37      -0.2863
     42  CB        37.0070   -6.6970   32.3290 C.3    37  THR37       0.1794
     43  OG1       38.1810   -6.6260   31.5020 O.3    37  THR37      -0.2208
     44  CG2       36.8180   -8.1280   32.7400 C.3    37  THR37       0.0378
     45  N         36.8660    0.9200   38.4390 N.3    43  CYS43      -0.1235
     46  CA        38.1090    0.3270   38.8640 C.3    43  CYS43       0.1677
     47  C         38.9710    1.3940   39.4640 C.2    43  CYS43       0.2270
     48  O         38.9790    2.5230   38.9760 O.2    43  CYS43      -0.2867
     49  CB        38.8130   -0.2850   37.6610 C.3    43  CYS43       0.0956
     50  SG        40.4400   -0.9570   38.0720 S.3    43  CYS43      -0.0801
     51  N         48.0950   -1.9940   41.2940 N.3    58  LYS58      -0.1231
     52  CA        47.0940   -2.9740   41.7170 C.3    58  LYS58       0.1693
     53  C         45.7820   -2.3920   41.1900 C.2    58  LYS58       0.2592
     54  O         45.5870   -1.1600   41.1160 O.2    58  LYS58      -0.2718
     55  CB        47.0300   -3.0260   43.2040 C.3    58  LYS58       0.0285
     56  CG        48.3380   -3.1730   44.0400 C.3    58  LYS58       0.0035
     57  CD        48.5460   -4.6400   44.3200 C.3    58  LYS58       0.0206
     58  CE        49.5560   -4.9310   45.4210 C.3    58  LYS58       0.1093
     59  NZ        50.9200   -4.5720   45.0610 N.3    58  LYS58      -0.1314
     60  N         44.8620   -3.2200   40.7290 N.am   59  HIS59      -0.1962
     61  CA        43.6120   -2.7490   40.1530 C.3    59  HIS59       0.1787
     62  C         42.5230   -3.3320   41.0180 C.2    59  HIS59       0.2620
     63  O         42.5430   -4.5630   41.1650 O.2    59  HIS59      -0.2715
     64  CB        43.3930   -3.2540   38.7170 C.3    59  HIS59       0.0785
     65  CG        44.3370   -2.5810   37.7510 C.ar   59  HIS59       0.0821
     66  ND1       44.2280   -1.3880   37.1420 N.ar   59  HIS59      -0.2267
     67  CD2       45.5250   -3.1530   37.3960 C.ar   59  HIS59       0.1154
     68  CE1       45.3310   -1.2400   36.4410 C.ar   59  HIS59       0.1986
     69  NE2       46.0850   -2.3110   36.5950 N.ar   59  HIS59      -0.2212
     70  N         41.6050   -2.5050   41.5690 N.am   60  TYR60      -0.1960
     71  CA        40.5540   -2.9810   42.4490 C.3    60  TYR60       0.1771
     72  C         39.2110   -2.7360   41.8130 C.2    60  TYR60       0.2619
     73  O         38.9210   -1.5840   41.5100 O.2    60  TYR60      -0.2715
     74  CB        40.6270   -2.2490   43.7780 C.3    60  TYR60       0.0574
     75  CG        41.9350   -2.4940   44.5460 C.ar   60  TYR60      -0.0198
     76  CD1       42.0490   -3.6350   45.3450 C.ar   60  TYR60      -0.0009
     77  CD2       42.9800   -1.6060   44.4410 C.ar   60  TYR60      -0.0009
     78  CE1       43.2160   -3.8870   46.0540 C.ar   60  TYR60       0.0417
     79  CE2       44.1650   -1.8480   45.1340 C.ar   60  TYR60       0.0417
     80  CZ        44.2550   -2.9820   45.9280 C.ar   60  TYR60       0.1957
     81  OH        45.3800   -3.1680   46.6900 O.3    60  TYR60      -0.2866
     82  N         38.3900   -3.7250   41.4690 N.am   61  LYS61      -0.1977
     83  CA        37.0990   -3.4450   40.8630 C.3    61  LYS61       0.1596
     84  C         36.1620   -2.7620   41.8700 C.2    61  LYS61       0.2287
     85  O         36.2690   -3.0290   43.0600 O.2    61  LYS61      -0.2864
     86  CB        36.5960   -4.7760   40.3360 C.3    61  LYS61       0.0298
     87  CG        35.2590   -4.5830   39.6820 C.3    61  LYS61       0.0038
     88  CD        34.9180   -5.8010   38.8960 C.3    61  LYS61       0.0206
     89  CE        35.9340   -5.9710   37.7660 C.3    61  LYS61       0.1093
     90  NZ        35.7420   -7.2000   37.0180 N.3    61  LYS61      -0.1314
     91  N         34.1530   -2.1390   47.3760 N.3    72  ILE72      -0.1231
     92  CA        35.3260   -2.8930   46.9970 C.3    72  ILE72       0.1692
     93  C         35.2470   -4.0820   47.9640 C.2    72  ILE72       0.2592
     94  O         35.5180   -5.1940   47.5120 O.2    72  ILE72      -0.2718
     95  CB        36.6370   -2.0930   47.2150 C.3    72  ILE72       0.0266
     96  CG1       36.7080   -0.9850   46.1680 C.3    72  ILE72       0.0019
     97  CG2       37.8840   -3.0040   47.0430 C.3    72  ILE72       0.0020
     98  CD1       37.8960   -0.0380   46.3380 C.3    72  ILE72       0.0001
     99  N         34.8720   -4.0060   49.2670 N.am   73  THR73      -0.1953
    100  CA        34.8120   -5.1880   50.1280 C.3    73  THR73       0.1897
    101  C         33.5410   -5.2710   50.9430 C.2    73  THR73       0.2313
    102  O         32.8080   -4.2810   50.9950 O.2    73  THR73      -0.2863
    103  CB        35.9290   -5.2700   51.1590 C.3    73  THR73       0.1794
    104  OG1       35.6440   -4.2740   52.1320 O.3    73  THR73      -0.2208
    105  CG2       37.3310   -5.0440   50.5560 C.3    73  THR73       0.0378
    106  N         42.3720   -0.1820   54.6890 N.3    93  ASP93      -0.1225
    107  CA        41.3490   -1.2390   54.9550 C.3    93  ASP93       0.1805
    108  C         41.4390   -2.3950   53.9510 C.2    93  ASP93       0.2598
    109  O         40.4430   -2.7420   53.2910 O.2    93  ASP93      -0.2718
    110  CB        39.9480   -0.6340   54.8310 C.3    93  ASP93       0.1424
    111  CG        38.8530   -1.3400   55.6430 C.2    93  ASP93       0.3668
    112  OD1       39.1510   -2.0220   56.6920 O.co2  93  ASP93      -0.2456
    113  OD2       37.6200   -1.2330   55.2720 O.co2  93  ASP93      -0.2456
    114  N         42.6310   -2.9530   53.8730 N.am   94  GLY94      -0.1942
    115  CA        42.9200   -4.0840   52.9840 C.3    94  GLY94       0.2014
    116  C         43.5680   -3.5940   51.6920 C.2    94  GLY94       0.2638
    117  O         44.2110   -4.3730   50.9750 O.2    94  GLY94      -0.2714
    118  N         43.4040   -2.3550   51.1660 N.am   95  LEU95      -0.1977
    119  CA        44.1440   -1.9370   49.9650 C.3    95  LEU95       0.1596
    120  C         45.6590   -1.9370   50.2610 C.2    95  LEU95       0.2287
    121  O         46.1210   -1.8750   51.3940 O.2    95  LEU95      -0.2864
    122  CB        43.7180   -0.5270   49.5170 C.3    95  LEU95       0.0297
    123  CG        42.2580   -0.1970   49.3300 C.3    95  LEU95       0.0022
    124  CD1       42.1710    1.0510   48.5060 C.3    95  LEU95       0.0001
    125  CD2       41.5310   -1.2720   48.6070 C.3    95  LEU95       0.0001
@<TRIPOS>BOND
     1    36    35   ar
     2    35    34    1
     3    35    37   ar
     4    34    33    1
     5    32    31    2
     6    33    30    1
     7    31    30    1
     8    31    38   am
     9    30    29    1
    10     1     2    1
    11    38    39    1
    12    41    40    2
    13    39    40    1
    14    39    42    1
    15    43    42    1
    16     3     2    1
    17     3     4    2
    18    29    25   am
    19     2     5    1
    20    26    25    2
    21     5     6    1
    22    42    44    1
    23    25    24    1
    24     6     7    1
    25     7     8    1
    26    21    20    1
    27    24    23    1
    28    24    27    1
    29     8     9    2
    30    18    19    1
    31    18    17    1
    32    20    19    2
    33    20    22    1
    34    28    27    1
    35    16    17    1
    36    16    13    1
    37     9    10    1
    38     9    11    1
    39    14    13    1
    40    14    15    2
    41    13    12    1
    42    68    69   ar
    43    68    66   ar
    44    69    67   ar
    45    90    89    1
    46    66    65   ar
    47    67    65   ar
    48    49    50    1
    49    49    46    1
    50    65    64    1
    51    89    88    1
    52    45    46    1
    53    64    61    1
    54    46    47    1
    55    88    87    1
    56    48    47    2
    57    87    86    1
    58    61    60    1
    59    61    62    1
    60    86    83    1
    61    60    53   am
    62    83    82    1
    63    83    84    1
    64    62    63    2
    65    62    70   am
    66    54    53    2
    67    53    52    1
    68    51    52    1
    69    82    72   am
    70    73    72    2
    71    70    71    1
    72    52    55    1
    73    72    71    1
    74    84    85    2
    75    71    74    1
    76    55    56    1
    77    74    75    1
    78    56    57    1
    79    57    58    1
    80    77    75   ar
    81    77    79   ar
    82    75    76   ar
    83    59    58    1
    84    79    80   ar
    85    76    78   ar
    86    80    78   ar
    87    80    81    1
    88    96    98    1
    89    96    95    1
    90    92    95    1
    91    92    91    1
    92    92    93    1
    93    97    95    1
    94    94    93    2
    95    93    99   am
    96   124   123    1
    97   125   123    1
    98    99   100    1
    99   123   122    1
   100   122   119    1
   101   119   120    1
   102   119   118    1
   103   100   101    1
   104   100   103    1
   105   120   121    2
   106   105   103    1
   107   101   102    2
   108   117   116    2
   109   103   104    1
   110   118   116   am
   111   116   115    1
   112   115   114    1
   113   109   108    2
   114   114   108   am
   115   108   107    1
   116   106   107    1
   117   110   107    1
   118   110   111    1
   119   113   111   ar
   120   111   112   ar
