@<TRIPOS>MOLECULE
tmp/1a1eA00.pdb
 137 132 0 0 0
SMALL
GASTEIGER

@<TRIPOS>ATOM
      1  N         47.6570   14.2640   30.1480 N.3    13  ARG13      -0.1245
      2  CA        46.3080   14.1000   29.7310 C.3    13  ARG13       0.1563
      3  C         45.3690   14.7840   30.7290 C.2    13  ARG13       0.2260
      4  O         44.3580   15.4440   30.4130 O.2    13  ARG13      -0.2867
      5  CB        46.0430   12.6070   29.6340 C.3    13  ARG13       0.0307
      6  CG        44.5800   12.4340   29.3880 C.3    13  ARG13       0.0489
      7  CD        44.0920   11.0750   29.7060 C.3    13  ARG13       0.2205
      8  NE        44.0700   10.5260   28.3810 N.pl3  13  ARG13      -0.0865
      9  CZ        42.9390   10.1630   27.7890 C.cat  13  ARG13       0.5346
     10  NH1       41.7350   10.2740   28.3730 N.pl3  13  ARG13       0.1354
     11  NH2       43.0760    9.7440   26.5270 N.pl3  13  ARG13       0.1354
     12  N         49.4470   18.1760   21.8950 N.3    33  ARG33      -0.1245
     13  CA        50.4580   17.9060   22.9180 C.3    33  ARG33       0.1563
     14  C         51.1280   16.5960   22.5390 C.2    33  ARG33       0.2260
     15  O         50.7620   15.9410   21.5530 O.2    33  ARG33      -0.2867
     16  CB        49.7820   17.7810   24.2900 C.3    33  ARG33       0.0307
     17  CG        48.6610   16.7570   24.2910 C.3    33  ARG33       0.0489
     18  CD        48.0660   16.7030   25.6340 C.3    33  ARG33       0.2205
     19  NE        46.9510   15.7780   25.6250 N.pl3  33  ARG33      -0.0865
     20  CZ        47.1220   14.4960   25.9870 C.cat  33  ARG33       0.5346
     21  NH1       48.3090   13.9970   26.3460 N.pl3  33  ARG33       0.1354
     22  NH2       46.0510   13.7210   25.9940 N.pl3  33  ARG33       0.1354
     23  N         51.7350   12.7140   23.2550 N.3    35  SER35      -0.1202
     24  CA        50.9790   11.6470   23.8660 C.3    35  SER35       0.2020
     25  C         51.8610   11.1630   25.0170 C.2    35  SER35       0.2619
     26  O         53.0310   10.8680   24.8080 O.2    35  SER35      -0.2717
     27  CB        50.7430   10.4940   22.8780 C.3    35  SER35       0.2103
     28  OG        50.0930    9.4440   23.5930 O.3    35  SER35      -0.2182
     29  N         51.3550   11.0970   26.2590 N.am   36  GLU36      -0.1965
     30  CA        52.1090   10.5560   27.4060 C.3    36  GLU36       0.1733
     31  C         52.3920    9.0450   27.2490 C.2    36  GLU36       0.2613
     32  O         53.4520    8.4920   27.4550 O.2    36  GLU36      -0.2715
     33  CB        51.3710   10.5920   28.7220 C.3    36  GLU36       0.0429
     34  CG        50.6840   11.8320   29.2050 C.3    36  GLU36       0.1163
     35  CD        50.2350   11.6460   30.6450 C.2    36  GLU36       0.3649
     36  OE1       51.0120   11.2030   31.4760 O.co2  36  GLU36      -0.2457
     37  OE2       49.0930   11.9530   30.9500 O.co2  36  GLU36      -0.2457
     38  N         51.3510    8.3910   26.8110 N.am   37  THR37      -0.2004
     39  CA        51.1960    6.9900   26.6390 C.3    37  THR37       0.1584
     40  C         51.8190    6.4700   25.3630 C.3    37  THR37       0.2062
     41  O         52.0940    5.3040   25.3810 O.3    37  THR37      -0.2184
     42  CB        49.6840    6.8270   26.8140 C.3    37  THR37       0.1745
     43  OG1       49.3950    6.6870   28.2080 O.3    37  THR37      -0.2212
     44  CG2       49.1620    5.6970   26.0950 C.3    37  THR37       0.0374
     45  N         48.7680   14.3420   20.3530 N.3    43  CYS43      -0.1235
     46  CA        47.3830   14.1890   20.6910 C.3    43  CYS43       0.1677
     47  C         46.6370   15.4870   20.4670 C.2    43  CYS43       0.2270
     48  O         47.1770   16.5490   20.7550 O.2    43  CYS43      -0.2867
     49  CB        47.3770   13.7310   22.1210 C.3    43  CYS43       0.0956
     50  SG        45.6830   13.6130   22.6750 S.3    43  CYS43      -0.0801
     51  N         37.5530   15.0820   24.2250 N.3    58  LYS58      -0.1231
     52  CA        37.7860   13.8890   23.4270 C.3    58  LYS58       0.1693
     53  C         39.2520   13.9250   23.0810 C.2    58  LYS58       0.2592
     54  O         39.7340   15.0030   22.7510 O.2    58  LYS58      -0.2718
     55  CB        37.0520   13.9020   22.0950 C.3    58  LYS58       0.0285
     56  CG        35.5580   14.0220   22.0950 C.3    58  LYS58       0.0035
     57  CD        34.9220   12.8900   22.8460 C.3    58  LYS58       0.0206
     58  CE        33.3980   12.9060   22.6890 C.3    58  LYS58       0.1093
     59  NZ        32.7380   14.0830   23.2460 N.3    58  LYS58      -0.1314
     60  N         40.0160   12.8520   23.1260 N.am   59  HIS59      -0.1962
     61  CA        41.4090   12.8620   22.7480 C.3    59  HIS59       0.1787
     62  C         41.6280   12.0150   21.4960 C.2    59  HIS59       0.2620
     63  O         41.2500   10.8530   21.4430 O.2    59  HIS59      -0.2715
     64  CB        42.2370   12.3220   23.8720 C.3    59  HIS59       0.0785
     65  CG        42.1450   13.1450   25.1280 C.ar   59  HIS59       0.0821
     66  ND1       42.9160   14.1610   25.5170 N.ar   59  HIS59      -0.2267
     67  CD2       41.2060   12.9080   26.0970 C.ar   59  HIS59       0.1154
     68  CE1       42.4790   14.5240   26.6960 C.ar   59  HIS59       0.1986
     69  NE2       41.4600   13.7810   27.0180 N.ar   59  HIS59      -0.2212
     70  N         42.2440   12.5270   20.4430 N.am   60  TYR60      -0.1960
     71  CA        42.4690   11.8530   19.2060 C.3    60  TYR60       0.1771
     72  C         43.9710   11.6970   19.0750 C.2    60  TYR60       0.2619
     73  O         44.6870   12.6990   19.1800 O.2    60  TYR60      -0.2715
     74  CB        41.9350   12.6920   18.0460 C.3    60  TYR60       0.0574
     75  CG        40.4470   12.8630   18.1170 C.ar   60  TYR60      -0.0198
     76  CD1       39.9320   13.8720   18.9360 C.ar   60  TYR60      -0.0009
     77  CD2       39.5950   12.0300   17.3900 C.ar   60  TYR60      -0.0009
     78  CE1       38.5540   14.0600   19.0450 C.ar   60  TYR60       0.0417
     79  CE2       38.2040   12.2250   17.4900 C.ar   60  TYR60       0.0417
     80  CZ        37.6930   13.2370   18.3210 C.ar   60  TYR60       0.1957
     81  OH        36.3450   13.4700   18.4450 O.3    60  TYR60      -0.2866
     82  N         44.5240   10.4980   18.9360 N.am   61  LYS61      -0.1977
     83  CA        45.9510   10.3530   18.7530 C.3    61  LYS61       0.1596
     84  C         46.4000   10.8400   17.3820 C.2    61  LYS61       0.2287
     85  O         45.6220   10.7310   16.4450 O.2    61  LYS61      -0.2864
     86  CB        46.2400    8.8800   19.0120 C.3    61  LYS61       0.0298
     87  CG        47.6790    8.5010   19.0560 C.3    61  LYS61       0.0038
     88  CD        47.8580    7.0960   19.5390 C.3    61  LYS61       0.0206
     89  CE        47.6580    6.8870   21.0300 C.3    61  LYS61       0.1093
     90  NZ        47.8150    5.4820   21.3920 N.3    61  LYS61      -0.1314
     91  N         45.1930   11.3980   11.5380 N.3    72  ILE72      -0.1231
     92  CA        44.2800   10.9350   12.5570 C.3    72  ILE72       0.1692
     93  C         43.4670    9.8670   11.8210 C.2    72  ILE72       0.2592
     94  O         43.1140    8.8670   12.4480 O.2    72  ILE72      -0.2718
     95  CB        43.3100   12.0260   13.1020 C.3    72  ILE72       0.0266
     96  CG1       44.1810   13.0990   13.8020 C.3    72  ILE72       0.0019
     97  CG2       42.3280   11.4500   14.1090 C.3    72  ILE72       0.0020
     98  CD1       43.4070   14.2070   14.4880 C.3    72  ILE72       0.0001
     99  N         43.1230    9.9930   10.5240 N.am   73  THR73      -0.1953
    100  CA        42.4150    8.9440    9.7880 C.3    73  THR73       0.1897
    101  C         43.0850    8.6270    8.4520 C.2    73  THR73       0.2313
    102  O         43.9770    9.3440    8.0020 O.2    73  THR73      -0.2863
    103  CB        40.9290    9.2830    9.4830 C.3    73  THR73       0.1794
    104  OG1       40.8400   10.3700    8.5850 O.3    73  THR73      -0.2208
    105  CG2       40.1930    9.7180   10.7210 C.3    73  THR73       0.0378
    106  N         41.2820   20.4930   10.2290 N.3    88  TYR88      -0.1241
    107  CA        40.1560   20.2230   11.1060 C.3    88  TYR88       0.1605
    108  C         39.4610   21.4800   11.6170 C.2    88  TYR88       0.2264
    109  O         38.4590   21.3750   12.3420 O.2    88  TYR88      -0.2867
    110  CB        40.6060   19.3360   12.2750 C.3    88  TYR88       0.0534
    111  CG        40.8430   17.9230   11.7360 C.ar   88  TYR88      -0.0201
    112  CD1       39.7810   17.1160   11.3360 C.ar   88  TYR88      -0.0009
    113  CD2       42.1390   17.4830   11.5650 C.ar   88  TYR88      -0.0009
    114  CE1       40.0230   15.8740   10.7540 C.ar   88  TYR88       0.0417
    115  CE2       42.3840   16.2520   10.9830 C.ar   88  TYR88       0.0417
    116  CZ        41.3330   15.4450   10.5790 C.ar   88  TYR88       0.1957
    117  OH        41.6270   14.2160   10.0330 O.3    88  TYR88      -0.2866
    118  N         35.2990   16.1420   10.0360 N.3    93  ASP93      -0.1225
    119  CA        35.7330   14.9590    9.3060 C.3    93  ASP93       0.1805
    120  C         36.1790   13.7800   10.1570 C.2    93  ASP93       0.2598
    121  O         37.2890   13.2450   10.0700 O.2    93  ASP93      -0.2718
    122  CB        36.8460   15.4010    8.4190 C.3    93  ASP93       0.1424
    123  CG        36.8950   14.5460    7.1890 C.2    93  ASP93       0.3668
    124  OD1       36.0170   14.7420    6.3600 O.co2  93  ASP93      -0.2456
    125  OD2       37.7990   13.7260    7.0150 O.co2  93  ASP93      -0.2456
    126  N         35.2700   13.4610   11.0720 N.am   94  GLY94      -0.1942
    127  CA        35.4210   12.3900   12.0450 C.3    94  GLY94       0.2014
    128  C         35.3770   12.8650   13.4820 C.2    94  GLY94       0.2638
    129  O         34.8190   12.1820   14.3410 O.2    94  GLY94      -0.2714
    130  N         35.9700   14.0290   13.7500 N.am   95  LEU95      -0.1977
    131  CA        36.0410   14.5830   15.0920 C.3    95  LEU95       0.1596
    132  C         34.6750   14.9970   15.6010 C.2    95  LEU95       0.2287
    133  O         33.7610   15.3010   14.8270 O.2    95  LEU95      -0.2864
    134  CB        36.9060   15.8130   15.1340 C.3    95  LEU95       0.0297
    135  CG        38.2360   15.7580   14.4340 C.3    95  LEU95       0.0022
    136  CD1       38.8790   17.0850   14.6710 C.3    95  LEU95       0.0001
    137  CD2       39.1460   14.6520   14.9130 C.3    95  LEU95       0.0001
@<TRIPOS>BOND
     1   124   123   ar
     2   125   123   ar
     3   123   122    1
     4   102   101    2
     5   122   119    1
     6   101   100    1
     7   104   103    1
     8   119   118    1
     9   119   120    1
    10   103   100    1
    11   103   105    1
    12   100    99    1
    13   117   116    1
    14   121   120    2
    15   120   126   am
    16   106   107    1
    17    99    93   am
    18   116   114   ar
    19   116   115   ar
    20   114   112   ar
    21   115   113   ar
    22   126   127    1
    23   107   108    1
    24   107   110    1
    25   112   111   ar
    26    91    92    1
    27   113   111   ar
    28   108   109    2
    29   111   110    1
    30    93    94    2
    31    93    92    1
    32   127   128    1
    33    92    95    1
    34    95    96    1
    35    95    97    1
    36   128   130   am
    37   128   129    2
    38   130   131    1
    39    96    98    1
    40   135   136    1
    41   135   137    1
    42   135   134    1
    43   133   132    2
    44   131   134    1
    45   131   132    1
    46    85    84    2
    47    84    83    1
    48    77    79   ar
    49    77    75   ar
    50    79    80   ar
    51    74    75    1
    52    74    71    1
    53    75    76   ar
    54    80    81    1
    55    80    78   ar
    56    83    82    1
    57    83    86    1
    58    76    78   ar
    59    82    72   am
    60    86    87    1
    61    87    88    1
    62    72    73    2
    63    72    71    1
    64    71    70    1
    65    88    89    1
    66    45    46    1
    67    70    62   am
    68    47    46    1
    69    47    48    2
    70    46    49    1
    71    89    90    1
    72    63    62    2
    73    62    61    1
    74    15    14    2
    75    12    13    1
    76    56    55    1
    77    56    57    1
    78    55    52    1
    79    49    50    1
    80    14    13    1
    81    58    57    1
    82    58    59    1
    83    61    60    1
    84    61    64    1
    85    54    53    2
    86    27    28    1
    87    27    24    1
    88    13    16    1
    89    53    60   am
    90    53    52    1
    91    23    24    1
    92    52    51    1
    93    24    25    1
    94    64    65    1
    95    16    17    1
    96    17    18    1
    97    26    25    2
    98    25    29   am
    99    65    66   ar
   100    65    67   ar
   101    40    41    1
   102    40    39    1
   103    66    68   ar
   104    19    18    1
   105    19    20    2
   106    20    22    1
   107    20    21    1
   108    44    42    1
   109    67    69   ar
   110    29    30    1
   111    11     9    1
   112    39    38    1
   113    39    42    1
   114    68    69   ar
   115    38    31   am
   116    42    43    1
   117    31    30    1
   118    31    32    2
   119    30    33    1
   120     9    10    1
   121     9     8    2
   122     8     7    1
   123    33    34    1
   124    34    35    1
   125     6     5    1
   126     6     7    1
   127     5     2    1
   128     2     1    1
   129     2     3    1
   130     4     3    2
   131    35    37   ar
   132    35    36   ar
