@<TRIPOS>MOLECULE
tmp/1a26A00.pdb
 164 160 0 0 0
SMALL
GASTEIGER

@<TRIPOS>ATOM
      1  N         28.1400   19.0760   12.9440 N.3    98  GLN98      -0.1245
      2  CA        29.2410   19.6370   13.7440 C.3    98  GLN98       0.1566
      3  C         30.4690   19.7690   12.8810 C.2    98  GLN98       0.2260
      4  O         31.1750   20.7730   12.9530 O.2    98  GLN98      -0.2867
      5  CB        29.6300   18.7060   14.9040 C.3    98  GLN98       0.0367
      6  CG        29.0660   19.0840   16.2460 C.3    98  GLN98       0.0905
      7  CD        27.5450   19.2710   16.1950 C.2    98  GLN98       0.2608
      8  OE1       27.0360   20.3450   15.8130 O.2    98  GLN98      -0.2717
      9  NE2       26.8080   18.2250   16.5680 N.am   98  GLN98      -0.0878
     10  N         47.6760    8.6680   26.1250 N.3   164  THR164     -0.1203
     11  CA        46.9400    8.1730   24.9600 C.3   164  THR164      0.1994
     12  C         47.3990    8.7660   23.6200 C.2   164  THR164      0.2617
     13  O         47.0150    8.2850   22.5470 O.2   164  THR164     -0.2717
     14  CB        45.4240    8.4130   25.1190 C.3   164  THR164      0.1784
     15  OG1       45.1760    9.8090   25.3380 O.3   164  THR164     -0.2211
     16  CG2       44.8820    7.6140   26.2940 C.3   164  THR164      0.0376
     17  N         48.2290    9.8030   23.6940 N.am  165  HIS165     -0.1975
     18  CA        48.7430   10.4780   22.5070 C.3   165  HIS165      0.1656
     19  C         50.1730   10.0290   22.1900 C.2   165  HIS165      0.2291
     20  O         51.0190   10.8400   21.7920 O.2   165  HIS165     -0.2864
     21  CB        48.6660   12.0010   22.7040 C.3   165  HIS165      0.0771
     22  CG        47.2840   12.5030   23.0040 C.ar  165  HIS165      0.0820
     23  ND1       47.0430   13.6770   23.6850 N.ar  165  HIS165     -0.2267
     24  CD2       46.0640   11.9610   22.7560 C.ar  165  HIS165      0.1154
     25  CE1       45.7410   13.8350   23.8500 C.ar  165  HIS165      0.1986
     26  NE2       45.1270   12.8050   23.2950 N.ar  165  HIS165     -0.2212
     27  N         25.3590   24.7470   19.6220 N.3   226  THR226     -0.1203
     28  CA        25.5040   23.2990   19.7470 C.3   226  THR226      0.1994
     29  C         26.7210   22.7420   19.0190 C.2   226  THR226      0.2618
     30  O         27.2140   21.6580   19.3560 O.2   226  THR226     -0.2717
     31  CB        24.2350   22.5710   19.2240 C.3   226  THR226      0.1784
     32  OG1       23.0820   23.0680   19.9160 O.3   226  THR226     -0.2211
     33  CG2       24.3410   21.0640   19.4620 C.3   226  THR226      0.0376
     34  N         27.1950   23.4840   18.0210 N.am  227  GLY227     -0.1942
     35  CA        28.3420   23.0390   17.2530 C.3   227  GLY227      0.2014
     36  C         29.6540   22.9410   18.0200 C.2   227  GLY227      0.2639
     37  O         30.6880   22.5640   17.4210 O.2   227  GLY227     -0.2714
     38  N         29.6050   23.2760   19.3220 N.am  228  TYR228     -0.1959
     39  CA        30.7620   23.2710   20.2250 C.3   228  TYR228      0.1771
     40  C         30.4540   22.6450   21.5940 C.2   228  TYR228      0.2619
     41  O         29.3820   22.8810   22.1640 O.2   228  TYR228     -0.2715
     42  CB        31.2370   24.7060   20.4360 C.3   228  TYR228      0.0574
     43  CG        31.3480   25.4770   19.1530 C.ar  228  TYR228     -0.0198
     44  CD1       30.2430   26.1060   18.6030 C.ar  228  TYR228     -0.0009
     45  CD2       32.5420   25.5120   18.4530 C.ar  228  TYR228     -0.0009
     46  CE1       30.3310   26.7420   17.3830 C.ar  228  TYR228      0.0417
     47  CE2       32.6430   26.1440   17.2400 C.ar  228  TYR228      0.0417
     48  CZ        31.5420   26.7570   16.7050 C.ar  228  TYR228      0.1957
     49  OH        31.6710   27.4080   15.4990 O.3   228  TYR228     -0.2866
     50  N         31.4300   21.9240   22.1500 N.am  229  MET229     -0.1977
     51  CA        31.2610   21.2490   23.4340 C.3   229  MET229      0.1605
     52  C         30.8000   22.1310   24.5740 C.2   229  MET229      0.2287
     53  O         29.8650   21.7730   25.2910 O.2   229  MET229     -0.2864
     54  CB        32.5370   20.5390   23.8710 C.3   229  MET229      0.0413
     55  CG        32.3260   19.7070   25.1410 C.3   229  MET229      0.0598
     56  SD        33.5900   18.4380   25.5270 S.3   229  MET229     -0.1393
     57  CE        32.7770   17.5750   27.0000 C.3   229  MET229      0.0692
     58  N         38.9780   27.9380   23.1250 N.3   235  TYR235     -0.1241
     59  CA        39.4560   26.7610   23.8630 C.3   235  TYR235      0.1605
     60  C         40.9530   26.6150   24.0580 C.2   235  TYR235      0.2264
     61  O         41.7390   26.8800   23.1380 O.2   235  TYR235     -0.2867
     62  CB        38.9480   25.4710   23.1990 C.3   235  TYR235      0.0534
     63  CG        37.4460   25.3100   23.2120 C.ar  235  TYR235     -0.0201
     64  CD1       36.6160   26.2730   22.6270 C.ar  235  TYR235     -0.0009
     65  CD2       36.8500   24.2180   23.8580 C.ar  235  TYR235     -0.0009
     66  CE1       35.2350   26.1610   22.6880 C.ar  235  TYR235      0.0417
     67  CE2       35.4670   24.0950   23.9240 C.ar  235  TYR235      0.0417
     68  CZ        34.6610   25.0700   23.3360 C.ar  235  TYR235      0.1957
     69  OH        33.2810   24.9540   23.3830 O.3   235  TYR235     -0.2866
     70  N         47.1220   17.4010   23.7810 N.3   242  LYS242     -0.1245
     71  CA        45.6980   17.5730   23.4950 C.3   242  LYS242      0.1561
     72  C         45.5200   18.6370   22.3990 C.2   242  LYS242      0.2260
     73  O         44.7090   18.4810   21.4840 O.2   242  LYS242     -0.2867
     74  CB        44.9500   18.0160   24.7450 C.3   242  LYS242      0.0271
     75  CG        43.4810   18.3620   24.4780 C.3   242  LYS242      0.0035
     76  CD        42.6670   18.2380   25.7540 C.3   242  LYS242      0.0206
     77  CE        41.1840   18.4180   25.5080 C.3   242  LYS242      0.1093
     78  NZ        40.4200   17.9840   26.7220 N.3   242  LYS242     -0.1314
     79  N         47.0720   17.8060   18.7710 N.3   245  ASN245     -0.1225
     80  CA        46.2050   17.0060   17.9210 C.3   245  ASN245      0.1785
     81  C         45.3690   17.8240   16.9270 C.2   245  ASN245      0.2597
     82  O         44.8900   17.2800   15.9200 O.2   245  ASN245     -0.2718
     83  CB        45.2800   16.1580   18.7790 C.3   245  ASN245      0.1169
     84  CG        46.0160   15.0480   19.4790 C.2   245  ASN245      0.2627
     85  OD1       47.1160   14.6570   19.0650 O.2   245  ASN245     -0.2716
     86  ND2       45.4230   14.5250   20.5430 N.am  245  ASN245     -0.0877
     87  N         45.2210   19.1250   17.1880 N.am  246  TYR246     -0.1976
     88  CA        44.4300   20.0130   16.3310 C.3   246  TYR246      0.1639
     89  C         45.2390   20.6740   15.2480 C.2   246  TYR246      0.2290
     90  O         44.7130   21.4720   14.4680 O.2   246  TYR246     -0.2864
     91  CB        43.6920   21.0680   17.1570 C.3   246  TYR246      0.0560
     92  CG        42.6250   20.4630   18.0320 C.ar  246  TYR246     -0.0198
     93  CD1       41.3510   20.2120   17.5320 C.ar  246  TYR246     -0.0009
     94  CD2       42.9250   20.0270   19.3270 C.ar  246  TYR246     -0.0009
     95  CE1       40.3900   19.5220   18.3000 C.ar  246  TYR246      0.0417
     96  CE2       41.9800   19.3320   20.1030 C.ar  246  TYR246      0.0417
     97  CZ        40.7110   19.0820   19.5830 C.ar  246  TYR246      0.1957
     98  OH        39.7690   18.3980   20.3350 O.3   246  TYR246     -0.2866
     99  N         30.8530   17.4960   32.4700 N.3   273  ASN273     -0.1225
    100  CA        30.1560   17.1070   31.2540 C.3   273  ASN273      0.1785
    101  C         29.8720   18.2770   30.3080 C.2   273  ASN273      0.2597
    102  O         29.7220   19.4160   30.7440 O.2   273  ASN273     -0.2718
    103  CB        28.8280   16.4560   31.6620 C.3   273  ASN273      0.1169
    104  CG        28.0630   15.8740   30.4830 C.2   273  ASN273      0.2627
    105  OD1       26.8570   15.6250   30.5890 O.2   273  ASN273     -0.2716
    106  ND2       28.7530   15.6280   29.3530 N.am  273  ASN273     -0.0877
    107  N         29.7600   17.9760   29.0160 N.am  274  ALA274     -0.1979
    108  CA        29.4580   18.9860   27.9990 C.3   274  ALA274      0.1597
    109  C         28.2110   19.7590   28.3890 C.2   274  ALA274      0.2287
    110  O         27.2410   19.1920   28.8850 O.2   274  ALA274     -0.2864
    111  CB        29.2610   18.3350   26.6450 C.3   274  ALA274      0.0319
    112  N         26.0620   23.4520   26.9480 N.3   276  HIS276     -0.1241
    113  CA        26.0090   24.5570   26.0100 C.3   276  HIS276      0.1621
    114  C         25.7800   25.8910   26.6780 C.2   276  HIS276      0.2264
    115  O         24.7020   26.4770   26.6170 O.2   276  HIS276     -0.2867
    116  CB        25.0100   24.2490   24.8970 C.3   276  HIS276      0.0745
    117  CG        25.3630   23.0150   24.1180 C.ar  276  HIS276      0.0817
    118  ND1       26.6410   22.7720   23.6450 N.ar  276  HIS276     -0.2268
    119  CD2       24.6270   21.9270   23.7820 C.ar  276  HIS276      0.1154
    120  CE1       26.6760   21.5870   23.0580 C.ar  276  HIS276      0.1986
    121  NE2       25.4680   21.0560   23.1290 N.ar  276  HIS276     -0.2212
    122  N         33.5990   13.1100   31.9470 N.3   322  CYS322     -0.1221
    123  CA        33.6130   12.7450   30.5410 C.3   322  CYS322      0.1808
    124  C         34.9580   12.9750   29.8890 C.2   322  CYS322      0.2601
    125  O         35.3450   12.2470   28.9740 O.2   322  CYS322     -0.2717
    126  CB        32.5760   13.5530   29.7750 C.3   322  CYS322      0.0970
    127  SG        30.9180   13.2270   30.3260 S.3   322  CYS322     -0.0800
    128  N         35.6700   13.9890   30.3600 N.am  323  LEU323     -0.1965
    129  CA        36.9590   14.3420   29.7810 C.3   323  LEU323      0.1728
    130  C         38.1800   13.5940   30.3170 C.2   323  LEU323      0.2616
    131  O         38.2310   13.1960   31.4770 O.2   323  LEU323     -0.2715
    132  CB        37.1460   15.8610   29.8700 C.3   323  LEU323      0.0311
    133  CG        35.9750   16.6500   29.2730 C.3   323  LEU323      0.0022
    134  CD1       36.0850   18.1080   29.5860 C.3   323  LEU323      0.0001
    135  CD2       35.9530   16.4270   27.7840 C.3   323  LEU323      0.0001
    136  N         39.1360   13.3510   29.4310 N.am  324  LEU324     -0.1963
    137  CA        40.3800   12.6620   29.7850 C.3   324  LEU324      0.1728
    138  C         41.3600   13.7000   30.2690 C.2   324  LEU324      0.2616
    139  O         42.2050   13.4290   31.1410 O.2   324  LEU324     -0.2715
    140  CB        41.0140   12.0140   28.5430 C.3   324  LEU324      0.0311
    141  CG        40.4670   10.7250   27.9130 C.3   324  LEU324      0.0022
    142  CD1       41.0650   10.5150   26.5240 C.3   324  LEU324      0.0001
    143  CD2       40.7940    9.5500   28.8310 C.3   324  LEU324      0.0001
    144  N         41.2590   14.8760   29.6400 N.am  325  TYR325     -0.1974
    145  CA        42.1430   16.0040   29.8920 C.3   325  TYR325      0.1639
    146  C         41.3720   17.2710   30.1240 C.2   325  TYR325      0.2290
    147  O         40.2320   17.3780   29.6890 O.2   325  TYR325     -0.2864
    148  CB        43.0640   16.1910   28.6930 C.3   325  TYR325      0.0560
    149  CG        43.8160   14.9260   28.3680 C.ar  325  TYR325     -0.0198
    150  CD1       44.7650   14.4220   29.2570 C.ar  325  TYR325     -0.0009
    151  CD2       43.5070   14.1790   27.2350 C.ar  325  TYR325     -0.0009
    152  CE1       45.3820   13.2020   29.0390 C.ar  325  TYR325      0.0417
    153  CE2       44.1170   12.9530   27.0040 C.ar  325  TYR325      0.0417
    154  CZ        45.0560   12.4670   27.9130 C.ar  325  TYR325      0.1957
    155  OH        45.6830   11.2540   27.7040 O.3   325  TYR325     -0.2866
    156  N         40.1640   21.1850   29.9260 N.3   327  GLU327     -0.1245
    157  CA        39.7890   22.0090   28.8130 C.3   327  GLU327      0.1567
    158  C         39.4070   23.3440   29.4460 C.2   327  GLU327      0.2260
    159  O         38.6950   23.3580   30.4510 O.2   327  GLU327     -0.2867
    160  CB        38.5810   21.3560   28.1430 C.3   327  GLU327      0.0388
    161  CG        38.2890   21.8210   26.7400 C.3   327  GLU327      0.1160
    162  CD        37.8280   20.6880   25.8420 C.2   327  GLU327      0.3649
    163  OE1       38.3160   19.5590   26.0550 O.co2 327  GLU327     -0.2457
    164  OE2       36.9990   20.9280   24.9190 O.co2 327  GLU327     -0.2457
@<TRIPOS>BOND
     1     3     4    2
     2     3     2    1
     3     1     2    1
     4     2     5    1
     5    90    89    2
     6     5     6    1
     7    89    88    1
     8    49    48    1
     9     8     7    2
    10    82    81    2
    11     7     6    1
    12     7     9   am
    13    88    91    1
    14    88    87    1
    15    48    47   ar
    16    48    46   ar
    17    81    87   am
    18    81    80    1
    19    91    92    1
    20    47    45   ar
    21    35    36    1
    22    35    34    1
    23    46    44   ar
    24    37    36    2
    25    93    92   ar
    26    93    95   ar
    27    80    79    1
    28    80    83    1
    29    36    38   am
    30    34    29   am
    31    92    94   ar
    32    95    97   ar
    33    45    43   ar
    34    44    43   ar
    35    83    84    1
    36    29    30    2
    37    29    28    1
    38    85    84    2
    39    43    42    1
    40    31    33    1
    41    31    28    1
    42    31    32    1
    43    38    39    1
    44    94    96   ar
    45    84    86   am
    46    97    96   ar
    47    97    98    1
    48    27    28    1
    49    39    42    1
    50    39    40    1
    51    73    72    2
    52    40    50   am
    53    40    41    2
    54    20    19    2
    55    50    51    1
    56    19    18    1
    57    72    71    1
    58    18    21    1
    59    18    17    1
    60    13    12    2
    61    64    66   ar
    62    64    63   ar
    63    66    68   ar
    64    21    22    1
    65    24    22   ar
    66    24    26   ar
    67    22    23   ar
    68   120   121   ar
    69   120   118   ar
    70    58    59    1
    71   121   119   ar
    72    61    60    2
    73    62    63    1
    74    62    59    1
    75    63    65   ar
    76    26    25   ar
    77    68    69    1
    78    68    67   ar
    79    51    54    1
    80    51    52    1
    81    71    70    1
    82    71    74    1
    83    12    17   am
    84    12    11    1
    85   118   117   ar
    86    23    25   ar
    87   119   117   ar
    88    65    67   ar
    89    59    60    1
    90    54    55    1
    91   117   116    1
    92    75    74    1
    93    75    76    1
    94    52    53    2
    95   116   113    1
    96   164   162   ar
    97    11    14    1
    98    11    10    1
    99    14    15    1
   100    14    16    1
   101    55    56    1
   102    77    76    1
   103    77    78    1
   104    56    57    1
   105   162   163   ar
   106   162   161    1
   107   113   114    1
   108   113   112    1
   109   142   141    1
   110   115   114    2
   111   111   108    1
   112   161   160    1
   113   153   151   ar
   114   153   154   ar
   115   151   149   ar
   116   155   154    1
   117   135   133    1
   118   141   140    1
   119   141   143    1
   120   154   152   ar
   121   108   109    1
   122   108   107    1
   123   160   157    1
   124   149   148    1
   125   149   150   ar
   126   109   110    2
   127   140   137    1
   128   148   145    1
   129   157   158    1
   130   157   156    1
   131   125   124    2
   132   107   101   am
   133   152   150   ar
   134   133   134    1
   135   133   132    1
   136   106   104   am
   137   136   137    1
   138   136   130   am
   139   158   159    2
   140   144   145    1
   141   144   138   am
   142   147   146    2
   143   126   127    1
   144   126   123    1
   145   129   132    1
   146   129   130    1
   147   129   128    1
   148   137   138    1
   149   124   128   am
   150   124   123    1
   151   145   146    1
   152   138   139    2
   153   101   102    2
   154   101   100    1
   155   130   131    2
   156   104   105    2
   157   104   103    1
   158   123   122    1
   159   100   103    1
   160   100    99    1
