@<TRIPOS>MOLECULE
tmp/1a28B00.pdb
 180 169 0 0 0
SMALL
GASTEIGER

@<TRIPOS>ATOM
      1  N         32.4360   40.0550   46.6660 N.3    33  LEU33      -0.1245
      2  CA        32.4090   38.6070   46.4350 C.3    33  LEU33       0.1561
      3  C         31.3030   38.2570   45.4230 C.2    33  LEU33       0.2260
      4  O         31.4490   37.3500   44.6150 O.2    33  LEU33      -0.2867
      5  CB        32.2190   37.8550   47.7570 C.3    33  LEU33       0.0270
      6  CG        33.4390   37.8950   48.6910 C.3    33  LEU33       0.0019
      7  CD1       33.0750   37.3970   50.0650 C.3    33  LEU33       0.0001
      8  CD2       34.5830   37.0670   48.0890 C.3    33  LEU33       0.0001
      9  N         32.7380   38.9910   42.0830 N.3    36  LEU36      -0.1231
     10  CA        33.7320   37.9960   41.7140 C.3    36  LEU36       0.1693
     11  C         33.0040   36.7460   41.2340 C.2    36  LEU36       0.2592
     12  O         33.4400   36.0990   40.2860 O.2    36  LEU36      -0.2718
     13  CB        34.6610   37.6750   42.8890 C.3    36  LEU36       0.0284
     14  CG        35.7090   38.7500   43.2110 C.3    36  LEU36       0.0019
     15  CD1       36.4420   38.4130   44.4990 C.3    36  LEU36       0.0001
     16  CD2       36.7020   38.8480   42.0670 C.3    36  LEU36       0.0001
     17  N         31.8870   36.4070   41.8790 N.am   37  ASN37      -0.1974
     18  CA        31.1290   35.2420   41.4450 C.3    37  ASN37       0.1688
     19  C         30.4950   35.4180   40.0730 C.2    37  ASN37       0.2292
     20  O         30.3930   34.4610   39.3280 O.2    37  ASN37      -0.2864
     21  CB        30.0320   34.8620   42.4460 C.3    37  ASN37       0.1181
     22  CG        30.5860   34.1710   43.6580 C.2    37  ASN37       0.2629
     23  OD1       31.6290   33.5180   43.5740 O.2    37  ASN37      -0.2716
     24  ND2       29.8850   34.2620   44.7780 N.am   37  ASN37      -0.0877
     25  N         31.7440   37.2490   37.7640 N.3    39  LEU39      -0.1231
     26  CA        32.8910   37.1430   36.8740 C.3    39  LEU39       0.1693
     27  C         33.1970   35.6520   36.6830 C.2    39  LEU39       0.2592
     28  O         33.4170   35.1720   35.5660 O.2    39  LEU39      -0.2718
     29  CB        34.0960   37.8660   37.4980 C.3    39  LEU39       0.0284
     30  CG        35.3870   37.7690   36.6960 C.3    39  LEU39       0.0019
     31  CD1       35.1620   38.4520   35.3460 C.3    39  LEU39       0.0001
     32  CD2       36.5370   38.4330   37.4530 C.3    39  LEU39       0.0001
     33  N         33.2190   34.9250   37.7930 N.am   40  GLY40      -0.1957
     34  CA        33.4640   33.4950   37.7390 C.3    40  GLY40       0.1869
     35  C         32.4970   32.7930   36.8070 C.2    40  GLY40       0.2309
     36  O         32.8880   31.9280   36.0190 O.2    40  GLY40      -0.2863
     37  N         33.4190   33.5730   33.2670 N.3    43  GLN43      -0.1245
     38  CA        34.6310   32.8660   32.9100 C.3    43  GLN43       0.1566
     39  C         34.3720   31.3780   32.7500 C.2    43  GLN43       0.2260
     40  O         35.0020   30.7350   31.9120 O.2    43  GLN43      -0.2867
     41  CB        35.7120   33.0970   33.9580 C.3    43  GLN43       0.0367
     42  CG        36.4110   34.4270   33.7710 C.3    43  GLN43       0.0905
     43  CD        37.4710   34.6750   34.8130 C.2    43  GLN43       0.2608
     44  OE1       38.0600   33.7300   35.3490 O.2    43  GLN43      -0.2717
     45  NE2       37.7490   35.9440   35.0890 N.am   43  GLN43      -0.0878
     46  N         38.0400   23.9430   37.3470 N.3    73  TRP73      -0.1227
     47  CA        37.7100   25.3520   37.1360 C.3    73  TRP73       0.1737
     48  C         38.4140   26.3660   38.0600 C.2    73  TRP73       0.2595
     49  O         38.8640   27.4190   37.5980 O.2    73  TRP73      -0.2718
     50  CB        36.1880   25.5850   37.1990 C.3    73  TRP73       0.0564
     51  CG        35.5760   25.3680   38.5370 C.ar   73  TRP73       0.0003
     52  CD1       35.1050   24.1960   39.0450 C.ar   73  TRP73       0.0946
     53  CD2       35.3930   26.3540   39.5570 C.ar   73  TRP73       0.0152
     54  NE1       34.6360   24.3890   40.3230 N.ar   73  TRP73      -0.2442
     55  CE2       34.8040   25.7070   40.6610 C.ar   73  TRP73       0.0810
     56  CE3       35.6720   27.7280   39.6430 C.ar   73  TRP73       0.0012
     57  CZ2       34.4860   26.3790   41.8420 C.ar   73  TRP73       0.0191
     58  CZ3       35.3560   28.3940   40.8110 C.ar   73  TRP73       0.0001
     59  CH2       34.7670   27.7200   41.9000 C.ar   73  TRP73       0.0015
     60  N         38.5120   26.0840   39.3530 N.am   74  MET74      -0.1979
     61  CA        39.1690   27.0420   40.2490 C.3    74  MET74       0.1605
     62  C         40.6410   27.2070   39.8850 C.2    74  MET74       0.2287
     63  O         41.1830   28.3340   39.8910 O.2    74  MET74      -0.2864
     64  CB        39.0510   26.5920   41.7200 C.3    74  MET74       0.0413
     65  CG        39.6650   27.5920   42.7060 C.3    74  MET74       0.0598
     66  SD        38.6540   29.0790   42.9390 S.3    74  MET74      -0.1393
     67  CE        37.3160   28.3250   43.9990 C.3    74  MET74       0.0692
     68  N         40.9490   29.2820   36.7210 N.3    77  MET77      -0.1230
     69  CA        40.6790   30.7020   36.9160 C.3    77  MET77       0.1702
     70  C         41.7130   31.4410   37.7420 C.2    77  MET77       0.2592
     71  O         42.0160   32.6000   37.4550 O.2    77  MET77      -0.2718
     72  CB        39.2680   30.9140   37.4910 C.3    77  MET77       0.0401
     73  CG        38.2020   30.4340   36.5220 C.3    77  MET77       0.0596
     74  SD        36.4950   30.7030   37.0190 S.3    77  MET77      -0.1393
     75  CE        35.6380   29.6770   35.7650 C.3    77  MET77       0.0692
     76  N         42.2820   30.7880   38.7480 N.am   78  VAL78      -0.1980
     77  CA        43.2880   31.4760   39.5480 C.3    78  VAL78       0.1595
     78  C         44.5820   31.5850   38.7230 C.2    78  VAL78       0.2287
     79  O         45.3460   32.5470   38.8420 O.2    78  VAL78      -0.2864
     80  CB        43.5110   30.7530   40.9210 C.3    78  VAL78       0.0276
     81  CG1       44.2960   29.4500   40.7620 C.3    78  VAL78       0.0022
     82  CG2       44.1610   31.7250   41.9080 C.3    78  VAL78       0.0022
     83  N         43.9660   34.4410   36.4060 N.3    81  LEU81      -0.1245
     84  CA        44.0830   35.6740   37.1860 C.3    81  LEU81       0.1561
     85  C         45.5670   36.0320   37.3190 C.2    81  LEU81       0.2260
     86  O         45.9610   37.2020   37.1830 O.2    81  LEU81      -0.2867
     87  CB        43.4900   35.4760   38.5860 C.3    81  LEU81       0.0270
     88  CG        43.7430   36.5700   39.6410 C.3    81  LEU81       0.0019
     89  CD1       43.1780   37.8970   39.1720 C.3    81  LEU81       0.0001
     90  CD2       43.0810   36.1660   40.9480 C.3    81  LEU81       0.0001
     91  N         46.8550   37.4510   33.9240 N.3    84  ARG84      -0.1245
     92  CA        46.4060   38.8080   33.6390 C.3    84  ARG84       0.1563
     93  C         47.0840   39.8310   34.5380 C.2    84  ARG84       0.2260
     94  O         47.3890   40.9430   34.1040 O.2    84  ARG84      -0.2867
     95  CB        44.8830   38.9390   33.8080 C.3    84  ARG84       0.0307
     96  CG        44.0470   38.2000   32.7740 C.3    84  ARG84       0.0489
     97  CD        42.5890   38.5680   32.9480 C.3    84  ARG84       0.2205
     98  NE        42.0780   38.1600   34.2560 N.pl3  84  ARG84      -0.0865
     99  CZ        41.6550   36.9320   34.5590 C.cat  84  ARG84       0.5346
    100  NH1       41.6730   35.9750   33.6560 N.pl3  84  ARG84       0.1354
    101  NH2       41.2100   36.6650   35.7840 N.pl3  84  ARG84       0.1354
    102  N         41.4630   40.8990   38.2040 N.3    96  PHE96      -0.1241
    103  CA        40.3590   39.9520   38.0040 C.3    96  PHE96       0.1605
    104  C         39.7000   40.2350   36.6630 C.2    96  PHE96       0.2264
    105  O         39.3550   39.3130   35.9160 O.2    96  PHE96      -0.2867
    106  CB        39.3290   40.0970   39.1260 C.3    96  PHE96       0.0534
    107  CG        39.8050   39.5940   40.4440 C.ar   96  PHE96      -0.0203
    108  CD1       39.8410   38.2270   40.7090 C.ar   96  PHE96      -0.0042
    109  CD2       40.2380   40.4820   41.4260 C.ar   96  PHE96      -0.0042
    110  CE1       40.2990   37.7620   41.9300 C.ar   96  PHE96      -0.0003
    111  CE2       40.7020   40.0130   42.6560 C.ar   96  PHE96      -0.0003
    112  CZ        40.7290   38.6500   42.9010 C.ar   96  PHE96      -0.0000
    113  N         43.0310   35.9190   51.7200 N.3   115  LEU115     -0.1245
    114  CA        42.7680   35.1350   50.5210 C.3   115  LEU115      0.1561
    115  C         43.3990   35.8540   49.3420 C.2   115  LEU115      0.2260
    116  O         43.9630   35.2240   48.4510 O.2   115  LEU115     -0.2867
    117  CB        41.2610   35.0000   50.2910 C.3   115  LEU115      0.0270
    118  CG        40.8580   33.8750   49.3340 C.3   115  LEU115      0.0019
    119  CD1       41.2510   32.5420   49.9490 C.3   115  LEU115      0.0001
    120  CD2       39.3620   33.9000   49.1060 C.3   115  LEU115      0.0001
    121  N         46.1960   34.3720   46.6480 N.3   119  MET119     -0.1245
    122  CA        46.0780   34.3760   45.2060 C.3   119  MET119      0.1570
    123  C         47.1900   35.1900   44.5530 C.2   119  MET119      0.2261
    124  O         47.7150   34.8040   43.5160 O.2   119  MET119     -0.2867
    125  CB        44.7250   34.9380   44.7940 C.3   119  MET119      0.0387
    126  CG        43.5670   33.9980   45.0530 C.3   119  MET119      0.0595
    127  SD        42.0260   34.7550   44.5430 S.3   119  MET119     -0.1393
    128  CE        41.9100   36.0950   45.7210 C.3   119  MET119      0.0692
    129  N         41.4650   28.0450   48.3670 N.3   205  LEU205     -0.1245
    130  CA        40.4020   28.7490   47.6480 C.3   205  LEU205      0.1561
    131  C         39.1270   27.8940   47.6480 C.2   205  LEU205      0.2260
    132  O         38.0170   28.4100   47.7750 O.2   205  LEU205     -0.2867
    133  CB        40.8360   29.0280   46.2030 C.3   205  LEU205      0.0270
    134  CG        42.0470   29.9510   46.0270 C.3   205  LEU205      0.0019
    135  CD1       42.3690   30.1080   44.5430 C.3   205  LEU205      0.0001
    136  CD2       41.7570   31.2900   46.6410 C.3   205  LEU205      0.0001
    137  N         37.4450   28.0980   51.1930 N.3   208  TYR208     -0.1227
    138  CA        36.8280   29.4080   51.4040 C.3   208  TYR208      0.1736
    139  C         35.5570   29.5140   50.5690 C.2   208  TYR208      0.2595
    140  O         34.5340   30.0290   51.0350 O.2   208  TYR208     -0.2718
    141  CB        37.8130   30.5310   51.0260 C.3   208  TYR208      0.0548
    142  CG        37.3010   31.9300   51.3320 C.ar  208  TYR208     -0.0200
    143  CD1       36.3080   32.5280   50.5470 C.ar  208  TYR208     -0.0009
    144  CD2       37.7810   32.6360   52.4320 C.ar  208  TYR208     -0.0009
    145  CE1       35.8130   33.7930   50.8610 C.ar  208  TYR208      0.0417
    146  CE2       37.2840   33.9060   52.7490 C.ar  208  TYR208      0.0417
    147  CZ        36.3030   34.4710   51.9570 C.ar  208  TYR208      0.1957
    148  OH        35.8140   35.7160   52.2650 O.3   208  TYR208     -0.2866
    149  N         35.6280   29.0170   49.3360 N.am  209  CYS209     -0.1970
    150  CA        34.4910   29.0450   48.4380 C.3   209  CYS209      0.1712
    151  C         33.3380   28.1990   48.9760 C.2   209  CYS209      0.2296
    152  O         32.2120   28.6690   49.0640 O.2   209  CYS209     -0.2864
    153  CB        34.9230   28.5500   47.0550 C.3   209  CYS209      0.0983
    154  SG        33.5870   28.3530   45.8630 S.3   209  CYS209     -0.0798
    155  N         31.7620   29.8180   51.9010 N.3   212  THR212     -0.1218
    156  CA        30.9930   30.9890   51.5110 C.3   212  THR212      0.1862
    157  C         29.7050   30.5460   50.8220 C.2   212  THR212      0.2287
    158  O         28.6600   31.1750   50.9770 O.2   212  THR212     -0.2866
    159  CB        31.8180   31.9250   50.5930 C.3   212  THR212      0.1770
    160  OG1       32.9870   32.3590   51.3010 O.3   212  THR212     -0.2211
    161  CG2       31.0150   33.1710   50.2180 C.3   212  THR212      0.0375
    162  N         25.6140   33.2800   44.3030 N.3   223  PHE223     -0.1241
    163  CA        26.3700   32.3860   43.4460 C.3   223  PHE223      0.1605
    164  C         25.4610   32.0460   42.2800 C.2   223  PHE223      0.2264
    165  O         24.3670   31.5070   42.4820 O.2   223  PHE223     -0.2867
    166  CB        26.7420   31.0730   44.1420 C.3   223  PHE223      0.0534
    167  CG        27.8560   31.1880   45.1230 C.ar  223  PHE223     -0.0203
    168  CD1       27.6450   31.7380   46.3780 C.ar  223  PHE223     -0.0042
    169  CD2       29.1220   30.7300   44.7890 C.ar  223  PHE223     -0.0042
    170  CE1       28.6680   31.8340   47.2960 C.ar  223  PHE223     -0.0003
    171  CE2       30.1750   30.8180   45.7030 C.ar  223  PHE223     -0.0003
    172  CZ        29.9460   31.3700   46.9580 C.ar  223  PHE223     -0.0000
    173  N         27.9330   28.1750   38.4370 N.3   227  MET227     -0.1245
    174  CA        28.9290   28.0950   39.4830 C.3   227  MET227      0.1570
    175  C         28.3790   27.2330   40.6200 C.2   227  MET227      0.2261
    176  O         29.0840   26.3930   41.1860 O.2   227  MET227     -0.2867
    177  CB        29.2770   29.5000   39.9660 C.3   227  MET227      0.0387
    178  CG        30.5060   29.5550   40.8360 C.3   227  MET227      0.0595
    179  SD        31.1040   31.2540   40.9790 S.3   227  MET227     -0.1393
    180  CE        32.5670   30.9540   41.9430 C.3   227  MET227      0.0692
@<TRIPOS>BOND
     1    40    39    2
     2    39    38    1
     3    96    97    1
     4    96    95    1
     5    38    37    1
     6    38    41    1
     7    97    98    1
     8    92    95    1
     9    92    91    1
    10    92    93    1
    11   100    99    1
    12    42    41    1
    13    42    43    1
    14    94    93    2
    15    98    99    2
    16    99   101    1
    17    43    45   am
    18    43    44    2
    19    31    30    1
    20    28    27    2
    21    75    74    1
    22   105   104    2
    23    36    35    2
    24    83    84    1
    25    73    74    1
    26    73    72    1
    27   104   103    1
    28    27    26    1
    29    27    33   am
    30    30    32    1
    31    30    29    1
    32    68    69    1
    33    35    34    1
    34    26    29    1
    35    26    25    1
    36    69    72    1
    37    69    70    1
    38    47    50    1
    39    47    46    1
    40    47    48    1
    41    86    85    2
    42    84    85    1
    43    84    87    1
    44    50    51    1
    45    71    70    2
    46    49    48    2
    47    34    33    1
    48    70    76   am
    49   103   102    1
    50   103   106    1
    51    48    60   am
    52   173   174    1
    53    51    52   ar
    54    51    53   ar
    55    87    88    1
    56    78    79    2
    57    78    77    1
    58    76    77    1
    59    52    54   ar
    60   106   107    1
    61    89    88    1
    62    20    19    2
    63    60    61    1
    64   174   177    1
    65   174   175    1
    66    77    80    1
    67    53    56   ar
    68    53    55   ar
    69    88    90    1
    70    56    58   ar
    71    62    63    2
    72    62    61    1
    73   177   178    1
    74    19    18    1
    75    61    64    1
    76    12    11    2
    77    54    55   ar
    78   107   108   ar
    79   107   109   ar
    80   175   176    2
    81    55    57   ar
    82   108   110   ar
    83    81    80    1
    84    58    59   ar
    85   178   179    1
    86    80    82    1
    87   179   180    1
    88    11    10    1
    89    11    17   am
    90   109   111   ar
    91    18    17    1
    92    18    21    1
    93    10     9    1
    94    10    13    1
    95    64    65    1
    96    57    59   ar
    97   110   112   ar
    98    16    14    1
    99   164   165    2
   100   164   163    1
   101    21    22    1
   102   111   112   ar
   103    65    66    1
   104    13    14    1
   105    66    67    1
   106    14    15    1
   107   163   166    1
   108   163   162    1
   109   124   123    2
   110    23    22    2
   111    22    24   am
   112   166   167    1
   113   135   134    1
   114   127   126    1
   115   127   128    1
   116   123   122    1
   117     4     3    2
   118   169   167   ar
   119   169   171   ar
   120   125   126    1
   121   125   122    1
   122   167   168   ar
   123   122   121    1
   124     3     2    1
   125   171   172   ar
   126   154   153    1
   127   134   133    1
   128   134   136    1
   129   133   130    1
   130   168   170   ar
   131     2     1    1
   132     2     5    1
   133   172   170   ar
   134   153   150    1
   135   130   131    1
   136   130   129    1
   137   131   132    2
   138     5     6    1
   139     8     6    1
   140   150   151    1
   141   150   149    1
   142   116   115    2
   143     6     7    1
   144   151   152    2
   145   120   118    1
   146   118   119    1
   147   118   117    1
   148   149   139   am
   149   115   114    1
   150   161   159    1
   151   117   114    1
   152   114   113    1
   153   143   145   ar
   154   143   142   ar
   155   139   140    2
   156   139   138    1
   157   159   160    1
   158   159   156    1
   159   157   158    2
   160   157   156    1
   161   145   147   ar
   162   141   142    1
   163   141   138    1
   164   137   138    1
   165   142   144   ar
   166   156   155    1
   167   147   148    1
   168   147   146   ar
   169   144   146   ar
