@<TRIPOS>MOLECULE
tmp/1a29A01.pdb
 108 99 0 0 0
SMALL
GASTEIGER

@<TRIPOS>ATOM
      1  N         14.4360    2.3710   23.0740 N.3     9  GLU9       -0.1245
      2  CA        14.6940    2.4690   21.6450 C.3     9  GLU9        0.1567
      3  C         16.0250    1.8340   21.2730 C.2     9  GLU9        0.2260
      4  O         16.1180    1.1350   20.2580 O.2     9  GLU9       -0.2867
      5  CB        14.6550    3.9290   21.1970 C.3     9  GLU9        0.0388
      6  CG        13.2620    4.5530   21.2520 C.3     9  GLU9        0.1160
      7  CD        13.2780    6.0610   21.0740 C.2     9  GLU9        0.3649
      8  OE1       14.1910    6.5870   20.3930 O.co2   9  GLU9       -0.2457
      9  OE2       12.3720    6.7220   21.6230 O.co2   9  GLU9       -0.2457
     10  N         15.6560   -1.7920   20.7980 N.3    12  GLU12      -0.1231
     11  CA        15.0340   -2.1870   19.5360 C.3    12  GLU12       0.1699
     12  C         16.1100   -2.2730   18.4380 C.2    12  GLU12       0.2592
     13  O         16.1240   -3.1990   17.6260 O.2    12  GLU12      -0.2718
     14  CB        13.9770   -1.1440   19.1490 C.3    12  GLU12       0.0402
     15  CG        13.1380   -1.4850   17.9270 C.3    12  GLU12       0.1161
     16  CD        12.1170   -2.5620   18.2080 C.2    12  GLU12       0.3649
     17  OE1       12.4640   -3.7570   18.0840 O.co2  12  GLU12      -0.2457
     18  OE2       10.9680   -2.2130   18.5550 O.co2  12  GLU12      -0.2457
     19  N         16.9920   -1.2770   18.4320 N.am   13  ALA13      -0.1980
     20  CA        18.0930   -1.1800   17.4870 C.3    13  ALA13       0.1597
     21  C         19.0810   -2.3240   17.7210 C.2    13  ALA13       0.2287
     22  O         19.6120   -2.9020   16.7650 O.2    13  ALA13      -0.2864
     23  CB        18.7900    0.1650   17.6410 C.3    13  ALA13       0.0319
     24  N         18.0560   -5.5590   16.3350 N.3    16  LEU16      -0.1245
     25  CA        18.0960   -5.6290   14.8770 C.3    16  LEU16       0.1561
     26  C         19.4020   -6.2830   14.4320 C.2    16  LEU16       0.2260
     27  O         19.4500   -6.9910   13.4220 O.2    16  LEU16      -0.2867
     28  CB        17.9340   -4.2540   14.2320 C.3    16  LEU16       0.0270
     29  CG        16.4970   -3.7610   14.0530 C.3    16  LEU16       0.0019
     30  CD1       16.5220   -2.5690   13.1200 C.3    16  LEU16       0.0001
     31  CD2       15.6190   -4.8550   13.4740 C.3    16  LEU16       0.0001
     32  N         14.3530    0.0480    6.1590 N.3   107  MET107     -0.1245
     33  CA        13.9110   -0.6830    7.3360 C.3   107  MET107      0.1570
     34  C         13.4110   -2.0820    6.9670 C.2   107  MET107      0.2261
     35  O         13.6490   -3.0410    7.7030 O.2   107  MET107     -0.2867
     36  CB        12.8370    0.1090    8.0820 C.3   107  MET107      0.0387
     37  CG        13.3280    1.4360    8.6610 C.3   107  MET107      0.0595
     38  SD        14.5620    1.2730    9.9850 S.3   107  MET107     -0.1393
     39  CE        16.0320    1.8640    9.1640 C.3   107  MET107      0.0692
     40  N         16.3320   -4.3210    6.7130 N.3   110  LEU110     -0.1245
     41  CA        16.8690   -4.6630    8.0280 C.3   110  LEU110      0.1561
     42  C         15.9730   -5.6200    8.8200 C.2   110  LEU110      0.2260
     43  O         16.3440   -6.0660    9.9020 O.2   110  LEU110     -0.2867
     44  CB        17.1100   -3.3960    8.8530 C.3   110  LEU110      0.0270
     45  CG        18.2770   -2.4910    8.4740 C.3   110  LEU110      0.0019
     46  CD1       18.3020   -1.3120    9.4250 C.3   110  LEU110      0.0001
     47  CD2       19.5900   -3.2570    8.5360 C.3   110  LEU110      0.0001
     48  N         12.8310   -4.8250    9.8570 N.3   112  GLU112     -0.1231
     49  CA        11.9470   -4.0740   10.7350 C.3   112  GLU112      0.1699
     50  C         10.5720   -3.9330   10.0900 C.2   112  GLU112      0.2592
     51  O         10.4570   -3.5030    8.9450 O.2   112  GLU112     -0.2718
     52  CB        12.5350   -2.6910   11.0080 C.3   112  GLU112      0.0402
     53  CG        11.7880   -1.8830   12.0670 C.3   112  GLU112      0.1161
     54  CD        12.0910   -2.3130   13.4920 C.2   112  GLU112      0.3649
     55  OE1       13.1430   -2.9420   13.7220 O.co2 112  GLU112     -0.2457
     56  OE2       11.2840   -2.0020   14.3900 O.co2 112  GLU112     -0.2457
     57  N          9.5360   -4.3470   10.8090 N.am  113  LYS113     -0.1966
     58  CA         8.1730   -4.2370   10.3040 C.3   113  LYS113      0.1728
     59  C          7.6120   -2.9220   10.8330 C.2   113  LYS113      0.2616
     60  O          7.3670   -2.7800   12.0340 O.2   113  LYS113     -0.2715
     61  CB         7.3250   -5.4270   10.7820 C.3   113  LYS113      0.0311
     62  CG         7.7300   -6.7400   10.1420 C.3   113  LYS113      0.0038
     63  CD         7.9370   -6.5700    8.6300 C.3   113  LYS113      0.0206
     64  CE         8.3420   -7.8880    7.9690 C.3   113  LYS113      0.1093
     65  NZ         9.7360   -8.3210    8.3050 N.3   113  LYS113     -0.1314
     66  N          7.4480   -1.9520    9.9380 N.am  114  LEU114     -0.1977
     67  CA         6.9430   -0.6400   10.3220 C.3   114  LEU114      0.1596
     68  C          5.6320   -0.2400    9.6630 C.2   114  LEU114      0.2287
     69  O          5.4110   -0.5030    8.4750 O.2   114  LEU114     -0.2864
     70  CB         7.9920    0.4410   10.0410 C.3   114  LEU114      0.0297
     71  CG         9.2010    0.4940   10.9730 C.3   114  LEU114      0.0022
     72  CD1        9.9270    1.8250   10.8230 C.3   114  LEU114      0.0001
     73  CD2        8.7210    0.3420   12.3860 C.3   114  LEU114      0.0001
     74  N          4.4970    4.8430   12.0670 N.3   118  GLU118     -0.1245
     75  CA         5.8800    4.7760   12.5310 C.3   118  GLU118      0.1567
     76  C          6.9050    5.4560   11.6210 C.2   118  GLU118      0.2260
     77  O          7.8360    6.1010   12.1100 O.2   118  GLU118     -0.2867
     78  CB         6.2640    3.3180   12.7920 C.3   118  GLU118      0.0388
     79  CG         5.3740    2.6310   13.8280 C.3   118  GLU118      0.1160
     80  CD         5.6660    1.1470   13.9720 C.2   118  GLU118      0.3649
     81  OE1        5.2680    0.3730   13.0820 O.co2 118  GLU118     -0.2457
     82  OE2        6.2900    0.7450   14.9750 O.co2 118  GLU118     -0.2457
     83  N          6.4720    9.2910   11.9160 N.3   121  GLU121     -0.1231
     84  CA         6.9510    9.7500   13.2310 C.3   121  GLU121      0.1699
     85  C          8.4740    9.8460   13.3150 C.2   121  GLU121      0.2592
     86  O          9.0100   10.6640   14.0580 O.2   121  GLU121     -0.2718
     87  CB         6.4160    8.8360   14.3420 C.3   121  GLU121      0.0402
     88  CG         6.8070    9.2500   15.7530 C.3   121  GLU121      0.1161
     89  CD         6.4040   10.6760   16.0840 C.2   121  GLU121      0.3649
     90  OE1        5.2840   11.0900   15.7100 O.co2 121  GLU121     -0.2457
     91  OE2        7.2110   11.3890   16.7170 O.co2 121  GLU121     -0.2457
     92  N          9.1580    8.9880   12.5610 N.am  122  MET122     -0.1979
     93  CA        10.6130    8.9920   12.5170 C.3   122  MET122      0.1605
     94  C         11.0620   10.1710   11.6780 C.2   122  MET122      0.2287
     95  O         12.0760   10.8060   11.9740 O.2   122  MET122     -0.2864
     96  CB        11.1380    7.6930   11.9190 C.3   122  MET122      0.0413
     97  CG        11.0700    6.5250   12.8770 C.3   122  MET122      0.0598
     98  SD        11.4220    4.9740   12.0680 S.3   122  MET122     -0.1393
     99  CE        13.1930    4.8840   12.2160 C.3   122  MET122      0.0692
    100  N         10.3660   13.6270   13.6510 N.3   125  GLU125     -0.1245
    101  CA        11.4000   13.9220   14.6390 C.3   125  GLU125      0.1567
    102  C         12.7340   14.4300   14.0830 C.2   125  GLU125      0.2260
    103  O         13.5070   15.0590   14.8050 O.2   125  GLU125     -0.2867
    104  CB        11.6100   12.7160   15.5520 C.3   125  GLU125      0.0388
    105  CG        10.4110   12.4480   16.4470 C.3   125  GLU125      0.1160
    106  CD        10.5110   11.1550   17.2340 C.2   125  GLU125      0.3649
    107  OE1       11.4260   10.3450   16.9690 O.co2 125  GLU125     -0.2457
    108  OE2        9.6490   10.9400   18.1140 O.co2 125  GLU125     -0.2457
@<TRIPOS>BOND
     1    32    33    1
     2    40    41    1
     3    34    33    1
     4    34    35    2
     5    33    36    1
     6    64    65    1
     7    64    63    1
     8    41    42    1
     9    41    44    1
    10    36    37    1
    11    45    47    1
    12    45    44    1
    13    45    46    1
    14    69    68    2
    15    63    62    1
    16    37    38    1
    17    42    43    2
    18    51    50    2
    19    39    38    1
    20    68    67    1
    21    48    49    1
    22    66    67    1
    23    66    59   am
    24    70    67    1
    25    70    71    1
    26    50    49    1
    27    50    57   am
    28    62    61    1
    29    58    61    1
    30    58    57    1
    31    58    59    1
    32    49    52    1
    33    72    71    1
    34    59    60    2
    35    71    73    1
    36    52    53    1
    37    76    77    2
    38    76    75    1
    39    94    95    2
    40    94    93    1
    41    83    84    1
    42    96    93    1
    43    96    97    1
    44    53    54    1
    45    74    75    1
    46    98    99    1
    47    98    97    1
    48    93    92    1
    49    75    78    1
    50    92    85   am
    51    78    79    1
    52    81    80   ar
    53    30    29    1
    54    84    85    1
    55    84    87    1
    56    85    86    2
    57    27    26    2
    58    31    29    1
    59    54    55   ar
    60    54    56   ar
    61   100   101    1
    62    79    80    1
    63    80    82   ar
    64    29    28    1
    65   102   101    1
    66   102   103    2
    67    28    25    1
    68    87    88    1
    69    26    25    1
    70   101   104    1
    71    25    24    1
    72   104   105    1
    73    90    89   ar
    74    88    89    1
    75    89    91   ar
    76   105   106    1
    77    22    21    2
    78   107   106   ar
    79   106   108   ar
    80    20    23    1
    81    20    21    1
    82    20    19    1
    83    13    12    2
    84    15    16    1
    85    15    14    1
    86    17    16   ar
    87    16    18   ar
    88    19    12   am
    89    12    11    1
    90    14    11    1
    91    11    10    1
    92     4     3    2
    93     8     7   ar
    94     7     6    1
    95     7     9   ar
    96     5     6    1
    97     5     2    1
    98     3     2    1
    99     2     1    1
