@<TRIPOS>MOLECULE
tmp/1a2cB01.pdb
 214 212 0 0 0
SMALL
GASTEIGER

@<TRIPOS>ATOM
      1  N         14.7270   -6.8370   11.7820 N.3    28  CYS28      -0.1235
      2  CA        14.3890   -6.3080   13.1190 C.3    28  CYS28       0.1677
      3  C         13.6700   -4.9600   13.0280 C.2    28  CYS28       0.2270
      4  O         13.3810   -4.4520   11.9330 O.2    28  CYS28      -0.2867
      5  CB        15.6550   -6.0230   13.9650 C.3    28  CYS28       0.0956
      6  SG        16.6800   -7.5070   14.4250 S.3    28  CYS28      -0.0801
      7  N         22.5670   -7.1490   18.4520 N.3    43  HIS43      -0.1241
      8  CA        22.4800   -8.5300   17.9220 C.3    43  HIS43       0.1621
      9  C         21.7470   -8.5410   16.6020 C.2    43  HIS43       0.2264
     10  O         22.0470   -9.5030   15.8230 O.2    43  HIS43      -0.2867
     11  CB        22.0610   -9.5300   18.9950 C.3    43  HIS43       0.0745
     12  CG        20.5530   -9.5550   19.0580 C.ar   43  HIS43       0.0817
     13  ND1       19.8450   -8.9110   20.0510 N.ar   43  HIS43      -0.2268
     14  CD2       19.6840  -10.1560   18.2050 C.ar   43  HIS43       0.1154
     15  CE1       18.5430   -9.1110   19.8370 C.ar   43  HIS43       0.1986
     16  NE2       18.4470   -9.7880   18.7000 N.ar   43  HIS43      -0.2212
     17  N         26.2600  -11.4440   15.2790 N.3    47  TYR47      -0.1241
     18  CA        25.9780  -12.6070   16.1500 C.3    47  TYR47       0.1605
     19  C         26.8310  -13.7070   15.5130 C.2    47  TYR47       0.2264
     20  O         26.4030  -14.4320   14.6280 O.2    47  TYR47      -0.2867
     21  CB        24.4790  -12.8580   16.0560 C.3    47  TYR47       0.0534
     22  CG        24.2560  -13.7940   17.2390 C.ar   47  TYR47      -0.0201
     23  CD1       24.6970  -13.3700   18.4940 C.ar   47  TYR47      -0.0009
     24  CD2       23.7140  -15.0700   17.0800 C.ar   47  TYR47      -0.0009
     25  CE1       24.5930  -14.2100   19.5940 C.ar   47  TYR47       0.0417
     26  CE2       23.6120  -15.9200   18.1840 C.ar   47  TYR47       0.0417
     27  CZ        24.0520  -15.4870   19.4420 C.ar   47  TYR47       0.1957
     28  OH        23.9500  -16.3060   20.5170 O.3    47  TYR47      -0.2866
     29  N         26.0830  -17.5080   15.0060 N.3    50  TRP50      -0.1298
     30  CA        25.1030  -17.9980   14.0560 C.3    50  TRP50       0.1291
     31  C         25.7500  -17.3570   12.8250 C.3    50  TRP50       0.2013
     32  O         24.9100  -16.7750   12.1200 O.3    50  TRP50      -0.2188
     33  CB        23.7150  -17.4940   14.0890 C.3    50  TRP50       0.0497
     34  CG        22.8170  -18.0690   15.1600 C.ar   50  TRP50      -0.0001
     35  CD1       23.0860  -19.0690   16.0030 C.ar   50  TRP50       0.0946
     36  CD2       21.5090  -17.5980   15.4150 C.ar   50  TRP50       0.0152
     37  NE1       21.9310  -19.2260   16.8340 N.ar   50  TRP50      -0.2442
     38  CE2       21.0200  -18.3460   16.4760 C.ar   50  TRP50       0.0810
     39  CE3       20.7080  -16.5990   14.8510 C.ar   50  TRP50       0.0012
     40  CZ2       19.7530  -18.1380   17.0340 C.ar   50  TRP50       0.0191
     41  CZ3       19.4300  -16.4030   15.4130 C.ar   50  TRP50       0.0001
     42  CH2       18.9770  -17.1350   16.4560 C.ar   50  TRP50       0.0015
     43  N         24.5050  -10.9500   26.0060 N.3    96  LEU96      -0.1245
     44  CA        23.9530   -9.8700   25.1890 C.3    96  LEU96       0.1561
     45  C         23.9660   -8.5010   25.9390 C.2    96  LEU96       0.2260
     46  O         22.9610   -7.7830   25.9280 O.2    96  LEU96      -0.2867
     47  CB        22.5440  -10.1530   24.6170 C.3    96  LEU96       0.0270
     48  CG        22.3860  -11.1170   23.4570 C.3    96  LEU96       0.0019
     49  CD1       21.1540  -10.8720   22.6020 C.3    96  LEU96       0.0001
     50  CD2       23.6420  -10.9970   22.6160 C.3    96  LEU96       0.0001
     51  N          4.8410  -17.6220   20.2080 N.3   146  GLU146     -0.1245
     52  CA         6.2090  -18.1490   20.3060 C.3   146  GLU146      0.1567
     53  C          6.7000  -19.1320   19.2810 C.2   146  GLU146      0.2260
     54  O          7.8820  -19.4250   19.0300 O.2   146  GLU146     -0.2867
     55  CB         6.4520  -18.8610   21.6410 C.3   146  GLU146      0.0388
     56  CG         7.8880  -19.3920   21.6070 C.3   146  GLU146      0.1160
     57  CD         8.3100  -19.8810   22.9670 C.2   146  GLU146      0.3649
     58  OE1        7.4700  -19.5280   23.8320 O.co2 146  GLU146     -0.2457
     59  OE2        9.3310  -20.5550   22.9480 O.co2 146  GLU146     -0.2457
     60  N         20.3660  -16.8460   33.0160 N.3   172  ILE172     -0.1245
     61  CA        21.3310  -15.9350   32.3170 C.3   172  ILE172      0.1561
     62  C         21.7660  -14.8640   33.3390 C.2   172  ILE172      0.2260
     63  O         21.0110  -14.4670   34.2570 O.2   172  ILE172     -0.2867
     64  CB        20.6320  -15.2400   31.0940 C.3   172  ILE172      0.0252
     65  CG1       20.0540  -16.3230   30.1350 C.3   172  ILE172      0.0019
     66  CG2       21.5570  -14.2550   30.3390 C.3   172  ILE172      0.0019
     67  CD1       21.2120  -16.8820   29.2490 C.3   172  ILE172      0.0001
     68  N          4.1090   -9.6780   25.2570 N.3   192  ASP192     -0.1225
     69  CA         5.5410   -9.7540   25.2360 C.3   192  ASP192      0.1805
     70  C          5.8750   -9.4700   23.7790 C.2   192  ASP192      0.2598
     71  O          4.9640   -9.4090   22.9280 O.2   192  ASP192     -0.2718
     72  CB         5.8810  -11.2190   25.7250 C.3   192  ASP192      0.1424
     73  CG         7.3310  -11.4270   26.0090 C.2   192  ASP192      0.3668
     74  OD1        8.1480  -10.4370   26.0500 O.co2 192  ASP192     -0.2456
     75  OD2        7.7770  -12.5880   26.3380 O.co2 192  ASP192     -0.2456
     76  N          7.0870   -9.0810   23.5210 N.am  193  ALA193     -0.1966
     77  CA         7.7280   -8.8990   22.2410 C.3   193  ALA193      0.1728
     78  C          7.9630  -10.3460   21.7600 C.2   193  ALA193      0.2616
     79  O          7.6660  -11.2720   22.5360 O.2   193  ALA193     -0.2715
     80  CB         9.1110   -8.2670   22.4890 C.3   193  ALA193      0.0334
     81  N          8.6460  -10.6280   20.6790 N.am  194  CYS194     -0.1954
     82  CA         8.8850  -12.0440   20.3070 C.3   194  CYS194      0.1843
     83  C          9.9400  -11.8380   19.2240 C.2   194  CYS194      0.2625
     84  O         10.2750  -10.6890   18.8670 O.2   194  CYS194     -0.2714
     85  CB         7.5610  -12.7330   19.9030 C.3   194  CYS194      0.0997
     86  SG         7.4820  -14.5950   19.8160 S.3   194  CYS194     -0.0797
     87  N         10.5410  -12.9010   18.7770 N.am  195  GLU195     -0.1963
     88  CA        11.4350  -12.8980   17.6460 C.3   195  GLU195      0.1733
     89  C         10.8050  -11.9130   16.6650 C.2   195  GLU195      0.2616
     90  O          9.5900  -12.0320   16.4760 O.2   195  GLU195     -0.2715
     91  CB        11.0930  -14.2280   16.9580 C.3   195  GLU195      0.0429
     92  CG        12.1870  -15.1440   16.5440 C.3   195  GLU195      0.1163
     93  CD        12.0800  -15.6230   15.1230 C.2   195  GLU195      0.3649
     94  OE1       11.8060  -14.6310   14.3880 O.co2 195  GLU195     -0.2457
     95  OE2       12.2850  -16.7920   14.7760 O.co2 195  GLU195     -0.2457
     96  N         11.6190  -11.3400   15.8230 N.am  196  GLY196     -0.1955
     97  CA        11.3470  -10.4190   14.7370 C.3   196  GLY196      0.1869
     98  C         11.1590   -9.0090   15.2070 C.2   196  GLY196      0.2309
     99  O         11.3070   -8.0800   14.3660 O.2   196  GLY196     -0.2863
    100  N         12.8260   -7.7770   17.9620 N.3   198  SER198     -0.1217
    101  CA        14.0970   -7.1940   18.4590 C.3   198  SER198      0.1889
    102  C         14.5020   -5.8710   17.7870 C.2   198  SER198      0.2288
    103  O         14.3440   -5.7400   16.6030 O.2   198  SER198     -0.2866
    104  CB        15.1150   -8.2860   18.1740 C.3   198  SER198      0.2089
    105  OG        15.9460   -8.5830   19.2770 O.3   198  SER198     -0.2183
    106  N         14.3590   -3.7560   22.5770 N.3   218  VAL218     -0.1231
    107  CA        13.8860   -5.1580   22.6420 C.3   218  VAL218      0.1692
    108  C         15.1280   -6.0930   22.4990 C.2   218  VAL218      0.2593
    109  O         15.8040   -6.0090   21.4860 O.2   218  VAL218     -0.2718
    110  CB        12.7200   -5.4430   21.7190 C.3   218  VAL218      0.0266
    111  CG1       12.0530   -6.8480   21.9100 C.3   218  VAL218      0.0020
    112  CG2       11.5780   -4.4490   21.7410 C.3   218  VAL218      0.0020
    113  N         15.5100   -6.7920   23.5930 N.am  219  SER219     -0.1938
    114  CA        16.7290   -7.5780   23.5900 C.3   219  SER219      0.2055
    115  C         16.5530   -9.1020   23.6000 C.2   219  SER219      0.2643
    116  O         16.7970   -9.7360   22.5250 O.2   219  SER219     -0.2714
    117  CB        17.7520   -7.2170   24.6880 C.3   219  SER219      0.2130
    118  OG        19.0710   -7.4790   24.1250 O.3   219  SER219     -0.2179
    119  N         16.0970   -9.7500   24.6440 N.am  220  TRP220     -0.1959
    120  CA        16.0520  -11.2290   24.5050 C.3   220  TRP220      0.1771
    121  C         15.0350  -11.7170   25.4600 C.2   220  TRP220      0.2620
    122  O         14.5370  -10.8720   26.2210 O.2   220  TRP220     -0.2715
    123  CB        17.4270  -11.7720   24.8340 C.3   220  TRP220      0.0590
    124  CG        18.1110  -11.2490   26.0950 C.ar  220  TRP220      0.0006
    125  CD1       18.8480  -10.1350   26.2170 C.ar  220  TRP220      0.0946
    126  CD2       18.0880  -11.8970   27.3540 C.ar  220  TRP220      0.0152
    127  NE1       19.3160  -10.0870   27.5700 N.ar  220  TRP220     -0.2442
    128  CE2       18.8670  -11.1370   28.2160 C.ar  220  TRP220      0.0810
    129  CE3       17.4830  -13.0660   27.8250 C.ar  220  TRP220      0.0012
    130  CZ2       19.1020  -11.5010   29.5470 C.ar  220  TRP220      0.0191
    131  CZ3       17.7110  -13.4140   29.1700 C.ar  220  TRP220      0.0001
    132  CH2       18.4860  -12.6690   29.9890 C.ar  220  TRP220      0.0015
    133  N         14.6330  -12.9830   25.2880 N.am  221  GLY221     -0.1940
    134  CA        13.6390  -13.4780   26.2750 C.3   221  GLY221      0.2014
    135  C         13.6410  -15.0160   26.1070 C.2   221  GLY221      0.2639
    136  O         14.2090  -15.4200   25.0880 O.2   221  GLY221     -0.2714
    137  N         13.2790  -15.7770   27.3400 N.am  222  GLU222     -0.1963
    138  CA        13.0250  -17.2310   27.2310 C.3   222  GLU222      0.1733
    139  C         11.6650  -17.4870   26.6040 C.2   222  GLU222      0.2617
    140  O         10.6410  -17.4640   27.3030 O.2   222  GLU222     -0.2715
    141  CB        13.0030  -17.9630   28.6130 C.3   222  GLU222      0.0429
    142  CG        13.7470  -17.2620   29.7690 C.3   222  GLU222      0.1163
    143  CD        15.2470  -17.5850   29.8210 C.2   222  GLU222      0.3649
    144  OE1       15.9490  -17.5140   28.7480 O.co2 222  GLU222     -0.2457
    145  OE2       15.8090  -17.9240   30.9410 O.co2 222  GLU222     -0.2457
    146  N         11.6190  -17.7930   25.3720 N.am  223  GLY223     -0.1940
    147  CA        10.3210  -17.9560   24.7100 C.3   223  GLY223      0.2014
    148  C          9.4670  -16.6870   24.9110 C.2   223  GLY223      0.2639
    149  O          9.5910  -16.0330   25.9790 O.2   223  GLY223     -0.2714
    150  N          8.5460  -16.4400   24.0000 N.am  224  CYS224     -0.1967
    151  CA         7.5840  -15.3070   24.0720 C.3   224  CYS224      0.1712
    152  C          6.3370  -15.5780   24.9070 C.2   224  CYS224      0.2296
    153  O          5.5340  -16.5390   24.7840 O.2   224  CYS224     -0.2864
    154  CB         7.1310  -14.9590   22.6940 C.3   224  CYS224      0.0983
    155  SG         8.4910  -15.0700   21.4920 S.3   224  CYS224     -0.0798
    156  N          5.8220  -16.5470   27.8220 N.3   226  ARG226     -0.1245
    157  CA         5.7260  -17.7470   28.6890 C.3   226  ARG226      0.1563
    158  C          5.4220  -17.2320   30.0920 C.2   226  ARG226      0.2260
    159  O          6.0160  -16.3060   30.7140 O.2   226  ARG226     -0.2867
    160  CB         6.9500  -18.6240   28.7450 C.3   226  ARG226      0.0307
    161  CG         7.6940  -19.0240   27.5020 C.3   226  ARG226      0.0489
    162  CD         7.5120  -20.4730   27.1520 C.3   226  ARG226      0.2205
    163  NE         8.4040  -20.7620   26.0400 N.pl3 226  ARG226     -0.0865
    164  CZ         9.6110  -21.2880   26.2480 C.cat 226  ARG226      0.5346
    165  NH1        9.7860  -21.8860   27.4360 N.pl3 226  ARG226      0.1354
    166  NH2       10.4710  -21.4310   25.2400 N.pl3 226  ARG226      0.1354
    167  N          8.0780  -15.8940   32.8690 N.3   229  LYS229     -0.1231
    168  CA         9.2990  -15.3660   32.2020 C.3   229  LYS229      0.1693
    169  C          9.0070  -13.9140   31.7980 C.2   229  LYS229      0.2592
    170  O          7.8120  -13.5160   31.7430 O.2   229  LYS229     -0.2718
    171  CB         9.7010  -16.3790   31.1580 C.3   229  LYS229      0.0285
    172  CG        10.2950  -17.6100   31.9240 C.3   229  LYS229      0.0035
    173  CD        11.2720  -18.3720   31.0510 C.3   229  LYS229      0.0206
    174  CE        12.3800  -19.0610   31.8830 C.3   229  LYS229      0.1093
    175  NZ        11.7630  -19.5290   33.1640 N.3   229  LYS229     -0.1314
    176  N         10.0150  -13.0530   31.6230 N.am  230  TYR230     -0.1962
    177  CA         9.9130  -11.6570   31.2310 C.3   230  TYR230      0.1771
    178  C         10.8600  -11.2620   30.1140 C.2   230  TYR230      0.2620
    179  O         11.8750  -11.9070   29.8430 O.2   230  TYR230     -0.2715
    180  CB        10.1390  -10.6930   32.3960 C.3   230  TYR230      0.0574
    181  CG         9.3520  -11.1280   33.6240 C.ar  230  TYR230     -0.0198
    182  CD1        9.8650  -12.1230   34.4630 C.ar  230  TYR230     -0.0009
    183  CD2        8.1140  -10.5440   33.8930 C.ar  230  TYR230     -0.0009
    184  CE1        9.1360  -12.5290   35.5850 C.ar  230  TYR230      0.0417
    185  CE2        7.3840  -10.9480   35.0140 C.ar  230  TYR230      0.0417
    186  CZ         7.8950  -11.9390   35.8610 C.ar  230  TYR230      0.1957
    187  OH         7.1820  -12.3240   36.9520 O.3   230  TYR230     -0.2866
    188  N         10.4340  -10.2700   29.3150 N.am  231  GLY231     -0.1940
    189  CA        11.2890   -9.7950   28.2190 C.3   231  GLY231      0.2014
    190  C         12.3110   -8.9500   28.8970 C.2   231  GLY231      0.2639
    191  O         12.1170   -8.2180   29.8450 O.2   231  GLY231     -0.2714
    192  N         13.4290   -8.9890   28.2020 N.am  232  PHE232     -0.1959
    193  CA        14.6230   -8.2380   28.5350 C.3   232  PHE232      0.1771
    194  C         14.9510   -7.2060   27.4310 C.2   232  PHE232      0.2616
    195  O         14.7910   -7.4740   26.2330 O.2   232  PHE232     -0.2715
    196  CB        15.8040   -9.2250   28.7020 C.3   232  PHE232      0.0574
    197  CG        15.7280   -9.8210   30.1030 C.ar  232  PHE232     -0.0200
    198  CD1       14.9350  -10.9500   30.3380 C.ar  232  PHE232     -0.0042
    199  CD2       16.4150   -9.2110   31.1550 C.ar  232  PHE232     -0.0042
    200  CE1       14.8360  -11.4770   31.6300 C.ar  232  PHE232     -0.0003
    201  CE2       16.3130   -9.7360   32.4480 C.ar  232  PHE232     -0.0003
    202  CZ        15.5260  -10.8690   32.6850 C.ar  232  PHE232     -0.0000
    203  N         15.4320   -6.0380   27.8690 N.am  233  TYR233     -0.2027
    204  CA        15.7190   -4.8930   26.9660 C.3   233  TYR233      0.1325
    205  C         17.0010   -4.1590   27.3050 C.3   233  TYR233      0.2039
    206  O         17.2100   -4.1180   28.5310 O.3   233  TYR233     -0.2185
    207  CB        14.6130   -3.8300   27.1280 C.3   233  TYR233      0.0507
    208  CG        13.1800   -4.3460   26.9120 C.ar  233  TYR233     -0.0202
    209  CD1       12.5020   -5.0470   27.9280 C.ar  233  TYR233     -0.0009
    210  CD2       12.5370   -4.0970   25.6970 C.ar  233  TYR233     -0.0009
    211  CE1       11.1960   -5.5210   27.7050 C.ar  233  TYR233      0.0417
    212  CE2       11.2400   -4.5740   25.4740 C.ar  233  TYR233      0.0417
    213  CZ        10.5730   -5.2910   26.4710 C.ar  233  TYR233      0.1957
    214  OH         9.3250   -5.7770   26.2260 O.3   233  TYR233     -0.2866
@<TRIPOS>BOND
     1     1     2    1
     2     4     3    2
     3    32    31    1
     4    31    30    1
     5     3     2    1
     6     2     5    1
     7     5     6    1
     8    30    33    1
     9    30    29    1
    10    33    34    1
    11    99    98    2
    12    94    93   ar
    13    20    19    2
    14    97    98    1
    15    97    96    1
    16    95    93   ar
    17    39    41   ar
    18    39    36   ar
    19    93    92    1
    20    34    36   ar
    21    34    35   ar
    22    17    18    1
    23    41    42   ar
    24    36    38   ar
    25    19    18    1
    26    96    89   am
    27    10     9    2
    28    35    37   ar
    29    21    18    1
    30    21    22    1
    31    42    40   ar
    32    38    37   ar
    33    38    40   ar
    34    90    89    2
    35    92    91    1
    36     9     8    1
    37   103   102    2
    38    89    88    1
    39    91    88    1
    40    24    22   ar
    41    24    26   ar
    42    22    23   ar
    43    88    87    1
    44   102   101    1
    45     8     7    1
    46     8    11    1
    47   100   101    1
    48   104   101    1
    49   104   105    1
    50    26    27   ar
    51    14    16   ar
    52    14    12   ar
    53    23    25   ar
    54    16    15   ar
    55    87    83   am
    56    84    83    2
    57    11    12    1
    58    54    53    2
    59    12    13   ar
    60    83    82    1
    61    53    52    1
    62    27    25   ar
    63    27    28    1
    64    86    85    1
    65    86   155    1
    66    15    13   ar
    67    85    82    1
    68    51    52    1
    69    52    55    1
    70    82    81    1
    71    81    78   am
    72   109   108    2
    73   155   154    1
    74    56    55    1
    75    56    57    1
    76   110   112    1
    77   110   111    1
    78   110   107    1
    79    78    77    1
    80    78    79    2
    81    77    80    1
    82    77    76    1
    83   108   107    1
    84   108   113   am
    85   116   115    2
    86   106   107    1
    87    49    48    1
    88    50    48    1
    89   154   151    1
    90    71    70    2
    91    59    57   ar
    92    57    58   ar
    93    48    47    1
    94    76    70   am
    95   114   113    1
    96   114   115    1
    97   114   117    1
    98   115   119   am
    99    70    69    1
   100   150   151    1
   101   150   148   am
   102   151   152    1
   103   118   117    1
   104   120   119    1
   105   120   123    1
   106   120   121    1
   107    47    44    1
   108   147   148    1
   109   147   146    1
   110   153   152    2
   111   123   124    1
   112   148   149    2
   113   136   135    2
   114    44    45    1
   115    44    43    1
   116    69    68    1
   117    69    72    1
   118   166   164    1
   119   133   121   am
   120   133   134    1
   121   146   139   am
   122   121   122    2
   123   212   210   ar
   124   212   213   ar
   125   210   208   ar
   126    72    73    1
   127    46    45    2
   128    73    74   ar
   129    73    75   ar
   130   163   164    2
   131   163   162    1
   132   124   125   ar
   133   124   126   ar
   134   135   134    1
   135   135   137   am
   136   125   127   ar
   137   214   213    1
   138   195   194    2
   139   164   165    1
   140   213   211   ar
   141   139   138    1
   142   139   140    2
   143   208   207    1
   144   208   209   ar
   145   204   207    1
   146   204   205    1
   147   204   203    1
   148   162   161    1
   149   138   137    1
   150   138   141    1
   151   205   206    1
   152   126   129   ar
   153   126   128   ar
   154   194   203   am
   155   194   193    1
   156   161   160    1
   157   127   128   ar
   158   211   209   ar
   159   156   157    1
   160   129   131   ar
   161   192   193    1
   162   192   190   am
   163   128   130   ar
   164   189   190    1
   165   189   188    1
   166   193   196    1
   167   141   142    1
   168   157   160    1
   169   157   158    1
   170   196   197    1
   171   144   143   ar
   172   190   191    2
   173   131   132   ar
   174    67    65    1
   175   188   178   am
   176   130   132   ar
   177   142   143    1
   178   143   145   ar
   179   179   178    2
   180   158   159    2
   181   197   198   ar
   182   197   199   ar
   183   178   177    1
   184    65    64    1
   185   198   200   ar
   186    66    64    1
   187   173   174    1
   188   173   172    1
   189    64    61    1
   190   199   201   ar
   191   171   172    1
   192   171   168    1
   193   177   176    1
   194   177   180    1
   195   176   169   am
   196   200   202   ar
   197   170   169    2
   198   169   168    1
   199   174   175    1
   200   168   167    1
   201    61    60    1
   202    61    62    1
   203   180   181    1
   204   201   202   ar
   205    62    63    2
   206   181   183   ar
   207   181   182   ar
   208   183   185   ar
   209   182   184   ar
   210   185   186   ar
   211   184   186   ar
   212   186   187    1
