@<TRIPOS>MOLECULE
tmp/1a30A00.pdb
 72 67 0 0 0
SMALL
GASTEIGER

@<TRIPOS>ATOM
      1  N         17.9390   30.1300    6.6570 N.3    25  ASP25      -0.1239
      2  CA        17.0540   29.3430    5.8120 C.3    25  ASP25       0.1674
      3  C         16.1500   30.1060    4.8440 C.2    25  ASP25       0.2266
      4  O         15.0310   30.4630    5.2070 O.2    25  ASP25      -0.2867
      5  CB        16.1920   28.5270    6.7780 C.3    25  ASP25       0.1410
      6  CG        15.4910   27.3640    6.1310 C.2    25  ASP25       0.3668
      7  OD1       15.4130   27.2710    4.8840 O.co2  25  ASP25      -0.2456
      8  OD2       14.9990   26.5340    6.9150 O.co2  25  ASP25      -0.2456
      9  N         14.4340   28.8900    2.6050 N.3    27  GLY27      -0.1210
     10  CA        13.2700   28.0770    2.2920 C.3    27  GLY27       0.1956
     11  C         12.1780   28.1780    3.3440 C.2    27  GLY27       0.2612
     12  O         11.1070   27.5800    3.2020 O.2    27  GLY27      -0.2717
     13  N         12.4400   28.9530    4.3930 N.am   28  ALA28      -0.1965
     14  CA        11.4890   29.1360    5.4840 C.3    28  ALA28       0.1728
     15  C         10.7650   30.4820    5.4880 C.2    28  ALA28       0.2616
     16  O         11.4080   31.5390    5.4390 O.2    28  ALA28      -0.2715
     17  CB        12.1960   28.9440    6.8180 C.3    28  ALA28       0.0334
     18  N          9.4340   30.4460    5.5620 N.am   29  ASP29      -0.1957
     19  CA         8.6450   31.6780    5.6280 C.3    29  ASP29       0.1840
     20  C          8.8480   32.3290    6.9860 C.2    29  ASP29       0.2622
     21  O          8.9320   33.5520    7.0790 O.2    29  ASP29      -0.2715
     22  CB         7.1370   31.4210    5.5210 C.3    29  ASP29       0.1450
     23  CG         6.7220   30.8130    4.2150 C.2    29  ASP29       0.3671
     24  OD1        7.4540   30.9310    3.2090 O.co2  29  ASP29      -0.2456
     25  OD2        5.6230   30.2220    4.2020 O.co2  29  ASP29      -0.2456
     26  N          8.8950   31.5050    8.0350 N.am   30  ASP30      -0.1971
     27  CA         9.0280   31.9760    9.4120 C.3    30  ASP30       0.1709
     28  C         10.3780   31.6590   10.0560 C.2    30  ASP30       0.2293
     29  O         11.2230   30.9760    9.4770 O.2    30  ASP30      -0.2864
     30  CB         7.9450   31.3360   10.2990 C.3    30  ASP30       0.1436
     31  CG         6.6100   31.1510    9.5870 C.2    30  ASP30       0.3671
     32  OD1        5.9760   32.1580    9.2140 O.co2  30  ASP30      -0.2456
     33  OD2        6.1890   29.9860    9.4250 O.co2  30  ASP30      -0.2456
     34  N         11.8210   29.8280   13.3300 N.3    32  VAL32      -0.1245
     35  CA        11.4040   28.8510   14.3300 C.3    32  VAL32       0.1561
     36  C         12.5710   28.5010   15.2540 C.2    32  VAL32       0.2260
     37  O         13.6350   28.0650   14.7990 O.2    32  VAL32      -0.2867
     38  CB        10.8590   27.5430   13.6480 C.3    32  VAL32       0.0252
     39  CG1       10.1250   26.6760   14.6590 C.3    32  VAL32       0.0019
     40  CG2        9.9470   27.8890   12.4710 C.3    32  VAL32       0.0019
     41  N          2.7790   24.7820   11.6240 N.3    47  ILE47      -0.1231
     42  CA         3.6590   25.0500   10.4960 C.3    47  ILE47       0.1692
     43  C          4.0950   23.7280    9.8810 C.2    47  ILE47       0.2593
     44  O          4.2850   22.7430   10.5910 O.2    47  ILE47      -0.2718
     45  CB         4.8980   25.8840   10.9090 C.3    47  ILE47       0.0266
     46  CG1        5.6900   25.1670   12.0050 C.3    47  ILE47       0.0019
     47  CG2        4.4630   27.2840   11.3330 C.3    47  ILE47       0.0020
     48  CD1        6.9550   25.8930   12.4250 C.3    47  ILE47       0.0001
     49  N          4.2220   23.6950    8.5620 N.am   48  GLY48      -0.1942
     50  CA         4.6150   22.4610    7.9240 C.3    48  GLY48       0.2014
     51  C          5.7570   22.5750    6.9470 C.2    48  GLY48       0.2639
     52  O          6.1160   23.6710    6.5040 O.2    48  GLY48      -0.2714
     53  N          6.3030   21.4170    6.6000 N.am   49  GLY49      -0.1939
     54  CA         7.4020   21.3230    5.6600 C.3    49  GLY49       0.2014
     55  C          7.6480   19.8500    5.4210 C.2    49  GLY49       0.2638
     56  O          6.7040   19.0570    5.4600 O.2    49  GLY49      -0.2714
     57  N          8.9030   19.4700    5.2020 N.am   50  ILE50      -0.1977
     58  CA         9.2460   18.0700    4.9670 C.3    50  ILE50       0.1596
     59  C          8.8640   17.2460    6.1960 C.2    50  ILE50       0.2287
     60  O          9.2220   17.5930    7.3250 O.2    50  ILE50      -0.2864
     61  CB        10.7650   17.9040    4.6620 C.3    50  ILE50       0.0276
     62  CG1       11.0770   18.4320    3.2640 C.3    50  ILE50       0.0022
     63  CG2       11.2030   16.4370    4.7620 C.3    50  ILE50       0.0022
     64  CD1       10.4870   17.6110    2.1780 C.3    50  ILE50       0.0001
     65  N         15.9730   27.8580   13.0660 N.3    84  ILE84      -0.1245
     66  CA        16.0260   28.3810   11.7000 C.3    84  ILE84       0.1561
     67  C         15.6050   29.8480   11.6180 C.2    84  ILE84       0.2260
     68  O         14.6630   30.2700   12.2930 O.2    84  ILE84      -0.2867
     69  CB        15.1620   27.5350   10.7000 C.3    84  ILE84       0.0252
     70  CG1       13.6740   27.6640   11.0110 C.3    84  ILE84       0.0019
     71  CG2       15.5490   26.0610   10.7600 C.3    84  ILE84       0.0019
     72  CD1       12.7880   26.7750   10.1520 C.3    84  ILE84       0.0001
@<TRIPOS>BOND
     1    64    62    1
     2    10     9    1
     3    10    11    1
     4    12    11    2
     5    24    23   ar
     6    62    61    1
     7    11    13   am
     8    25    23   ar
     9    23    22    1
    10    13    14    1
    11    61    63    1
    12    61    58    1
    13     3     4    2
    14     3     2    1
    15     7     6   ar
    16    58    57    1
    17    58    59    1
    18    57    55   am
    19    55    56    2
    20    55    54    1
    21    16    15    2
    22    14    15    1
    23    14    17    1
    24    15    18   am
    25    22    19    1
    26    18    19    1
    27    19    20    1
    28    54    53    1
    29     2     1    1
    30     2     5    1
    31     6     5    1
    32     6     8   ar
    33    59    60    2
    34    52    51    2
    35    53    51   am
    36    51    50    1
    37    20    21    2
    38    20    26   am
    39    50    49    1
    40    26    27    1
    41    49    43   am
    42    32    31   ar
    43    27    28    1
    44    27    30    1
    45    33    31   ar
    46    29    28    2
    47    31    30    1
    48    43    42    1
    49    43    44    2
    50    72    70    1
    51    42    45    1
    52    42    41    1
    53    69    71    1
    54    69    70    1
    55    69    66    1
    56    45    47    1
    57    45    46    1
    58    67    66    1
    59    67    68    2
    60    66    65    1
    61    46    48    1
    62    40    38    1
    63    34    35    1
    64    38    35    1
    65    38    39    1
    66    35    36    1
    67    37    36    2
