@<TRIPOS>MOLECULE
tmp/1a30B00.pdb
 81 74 0 0 0
SMALL
GASTEIGER

@<TRIPOS>ATOM
      1  N          8.7910   34.3250   -1.4670 N.3     8  ARG8       -0.1245
      2  CA         9.4950   33.0550   -1.6360 C.3     8  ARG8        0.1563
      3  C         10.4090   33.0220   -2.8440 C.2     8  ARG8        0.2260
      4  O          9.9740   33.3290   -3.9530 O.2     8  ARG8       -0.2867
      5  CB         8.5080   31.8910   -1.7010 C.3     8  ARG8        0.0307
      6  CG         7.8030   31.6360   -0.3960 C.3     8  ARG8        0.0489
      7  CD         6.8230   30.5090   -0.5640 C.3     8  ARG8        0.2205
      8  NE         6.0930   30.2410    0.6670 N.pl3   8  ARG8       -0.0865
      9  CZ         4.7950   29.9650    0.7150 C.cat   8  ARG8        0.5346
     10  NH1        4.0910   29.9000   -0.4080 N.pl3   8  ARG8        0.1354
     11  NH2        4.2030   29.7360    1.8770 N.pl3   8  ARG8        0.1354
     12  N         11.2970   31.4430   -5.4140 N.3    10  LEU10      -0.1245
     13  CA        10.9170   30.3970   -6.3660 C.3    10  LEU10       0.1561
     14  C         11.4610   30.7200   -7.7410 C.2    10  LEU10       0.2260
     15  O         11.3290   31.8490   -8.2050 O.2    10  LEU10      -0.2867
     16  CB         9.3970   30.3180   -6.4830 C.3    10  LEU10       0.0270
     17  CG         8.6210   29.9090   -5.2440 C.3    10  LEU10       0.0019
     18  CD1        7.1560   30.2690   -5.4250 C.3    10  LEU10       0.0001
     19  CD2        8.7870   28.4250   -5.0320 C.3    10  LEU10       0.0001
     20  N         11.9430   26.0600   -5.0200 N.3    23  LEU23      -0.1245
     21  CA        12.3700   27.0260   -4.0250 C.3    23  LEU23       0.1561
     22  C         13.8840   26.9530   -3.7580 C.2    23  LEU23       0.2260
     23  O         14.3970   25.8770   -3.4390 O.2    23  LEU23      -0.2867
     24  CB        11.6010   26.7290   -2.7340 C.3    23  LEU23       0.0270
     25  CG        11.6760   27.6170   -1.4960 C.3    23  LEU23       0.0019
     26  CD1       11.0260   28.9520   -1.7840 C.3    23  LEU23       0.0001
     27  CD2       10.9550   26.9230   -0.3530 C.3    23  LEU23       0.0001
     28  N         16.5200   26.9140   -1.5800 N.3    25  ASP25      -0.1239
     29  CA        16.5510   26.6900   -0.1390 C.3    25  ASP25       0.1674
     30  C         17.9390   26.5120    0.4810 C.2    25  ASP25       0.2266
     31  O         18.5230   25.4440    0.3760 O.2    25  ASP25      -0.2867
     32  CB        15.6850   25.4400    0.1120 C.3    25  ASP25       0.1410
     33  CG        15.3250   25.2240    1.5610 C.2    25  ASP25       0.3668
     34  OD1       15.8060   25.9310    2.4670 O.co2  25  ASP25      -0.2456
     35  OD2       14.5350   24.2960    1.7890 O.co2  25  ASP25      -0.2456
     36  N         18.4230   26.3140    3.5380 N.3    27  GLY27      -0.1210
     37  CA        18.2230   25.5160    4.7280 C.3    27  GLY27       0.1956
     38  C         18.2120   24.0350    4.3990 C.2    27  GLY27       0.2611
     39  O         18.0710   23.1980    5.2870 O.2    27  GLY27      -0.2717
     40  N         18.3750   23.7090    3.1270 N.am   28  ALA28      -0.1979
     41  CA        18.3640   22.3220    2.6750 C.3    28  ALA28       0.1597
     42  C         19.7200   21.7790    2.2250 C.2    28  ALA28       0.2287
     43  O         20.3770   22.3760    1.3760 O.2    28  ALA28      -0.2864
     44  CB        17.3590   22.1720    1.5320 C.3    28  ALA28       0.0319
     45  N         11.1660   19.7680    9.0650 N.3    50  ILE50      -0.1245
     46  CA        10.5190   20.3810   10.2140 C.3    50  ILE50       0.1561
     47  C          9.5200   19.4400   10.8820 C.2    50  ILE50       0.2260
     48  O          9.4850   19.3380   12.1070 O.2    50  ILE50      -0.2867
     49  CB         9.8180   21.7190    9.8080 C.3    50  ILE50       0.0252
     50  CG1        9.5270   22.5710   11.0420 C.3    50  ILE50       0.0019
     51  CG2        8.5390   21.4600    9.0240 C.3    50  ILE50       0.0019
     52  CD1       10.7320   23.2880   11.5570 C.3    50  ILE50       0.0001
     53  N          7.5630   15.6500   -0.9530 N.3    80  THR80      -0.1204
     54  CA         7.8930   16.9790   -0.4460 C.3    80  THR80       0.1979
     55  C          6.7780   17.9710   -0.7900 C.2    80  THR80       0.2460
     56  O          6.1970   17.9030   -1.8810 O.2    80  THR80      -0.2732
     57  CB         9.2250   17.5170   -1.0460 C.3    80  THR80       0.1783
     58  OG1        9.4660   18.8370   -0.5460 O.3    80  THR80      -0.2211
     59  CG2        9.1710   17.5760   -2.5670 C.3    80  THR80       0.0376
     60  N          6.4650   18.9020    0.1360 N.am   81  PRO81      -0.2717
     61  CA         5.4210   19.9210   -0.0500 C.3    81  PRO81       0.1535
     62  C          5.6400   20.7540   -1.3100 C.2    81  PRO81       0.2598
     63  O          4.6870   21.1060   -2.0080 O.2    81  PRO81      -0.2715
     64  CB         5.5640   20.7820    1.2020 C.3    81  PRO81       0.0310
     65  CG         5.9920   19.8080    2.2300 C.3    81  PRO81       0.0237
     66  CD         7.0200   18.9770    1.5010 C.3    81  PRO81       0.0939
     67  N          6.8980   21.0910   -1.5780 N.am   82  VAL82      -0.1978
     68  CA         7.2660   21.8850   -2.7520 C.3    82  VAL82       0.1596
     69  C          8.6460   21.4390   -3.2330 C.2    82  VAL82       0.2287
     70  O          9.4110   20.8600   -2.4620 O.2    82  VAL82      -0.2864
     71  CB         7.3340   23.4190   -2.4400 C.3    82  VAL82       0.0276
     72  CG1        6.0260   23.9170   -1.8280 C.3    82  VAL82       0.0022
     73  CG2        8.4920   23.7190   -1.5230 C.3    82  VAL82       0.0022
     74  N         12.3990   21.7020   -3.8980 N.3    84  ILE84      -0.1245
     75  CA        13.4350   22.5200   -3.2650 C.3    84  ILE84       0.1561
     76  C         14.8410   22.2800   -3.8350 C.2    84  ILE84       0.2260
     77  O         15.2460   21.1410   -4.0660 O.2    84  ILE84      -0.2867
     78  CB        13.4810   22.3440   -1.7000 C.3    84  ILE84       0.0252
     79  CG1       13.9300   20.9380   -1.3080 C.3    84  ILE84       0.0019
     80  CG2       12.1260   22.6550   -1.0710 C.3    84  ILE84       0.0019
     81  CD1       14.0570   20.7410    0.1970 C.3    84  ILE84       0.0001
@<TRIPOS>BOND
     1    15    14    2
     2    14    13    1
     3    16    13    1
     4    16    17    1
     5    13    12    1
     6    18    17    1
     7    17    19    1
     8    20    21    1
     9    77    76    2
    10    21    22    1
    11    21    24    1
    12     4     3    2
    13    74    75    1
    14    76    75    1
    15    22    23    2
    16    75    78    1
    17    69    68    1
    18    69    70    2
    19     3     2    1
    20    68    71    1
    21    68    67    1
    22    24    25    1
    23    59    57    1
    24    71    72    1
    25    71    73    1
    26    63    62    2
    27    56    55    2
    28    26    25    1
    29     5     2    1
    30     5     6    1
    31    78    79    1
    32    78    80    1
    33     2     1    1
    34    28    29    1
    35    67    62   am
    36    25    27    1
    37    62    61    1
    38    79    81    1
    39    57    58    1
    40    57    54    1
    41    53    54    1
    42    55    54    1
    43    55    60   am
    44     7     6    1
    45     7     8    1
    46    10     9    1
    47    29    32    1
    48    29    30    1
    49    61    60    1
    50    61    64    1
    51    32    33    1
    52    60    66    1
    53    31    30    2
    54     8     9    2
    55     9    11    1
    56    64    65    1
    57    43    42    2
    58    66    65    1
    59    44    41    1
    60    33    35   ar
    61    33    34   ar
    62    42    41    1
    63    41    40    1
    64    40    38   am
    65    36    37    1
    66    38    37    1
    67    38    39    2
    68    51    49    1
    69    45    46    1
    70    49    46    1
    71    49    50    1
    72    46    47    1
    73    47    48    2
    74    50    52    1
