@<TRIPOS>MOLECULE
tmp/1a38C00.pdb
 206 191 0 0 0
SMALL
GASTEIGER

@<TRIPOS>ATOM
      1  N         52.0590   55.2140   -5.7810 N.3    41  ARG41      -0.1231
      2  CA        52.2350   55.4340   -4.3590 C.3    41  ARG41       0.1694
      3  C         51.0850   56.2050   -3.7620 C.2    41  ARG41       0.2592
      4  O         50.5130   55.7730   -2.7640 O.2    41  ARG41      -0.2718
      5  CB        53.5570   56.1510   -4.1080 C.3    41  ARG41       0.0321
      6  CG        53.7150   56.8370   -2.7630 C.3    41  ARG41       0.0489
      7  CD        55.1960   57.1850   -2.5910 C.3    41  ARG41       0.2205
      8  NE        55.4760   58.4380   -1.8820 N.pl3  41  ARG41      -0.0865
      9  CZ        55.1650   59.6600   -2.3220 C.cat  41  ARG41       0.5346
     10  NH1       54.5320   59.8320   -3.4770 N.pl3  41  ARG41       0.1354
     11  NH2       55.5790   60.7250   -1.6480 N.pl3  41  ARG41       0.1354
     12  N         50.7490   57.3410   -4.3710 N.am   42  ASN42      -0.1974
     13  CA        49.6480   58.1640   -3.8750 C.3    42  ASN42       0.1688
     14  C         48.3180   57.4560   -4.0750 C.2    42  ASN42       0.2292
     15  O         47.4780   57.4220   -3.1670 O.2    42  ASN42      -0.2864
     16  CB        49.6130   59.5380   -4.5520 C.3    42  ASN42       0.1181
     17  CG        48.4610   60.4120   -4.0440 C.2    42  ASN42       0.2629
     18  OD1       47.5190   60.6960   -4.7860 O.2    42  ASN42      -0.2716
     19  ND2       48.5320   60.8410   -2.7760 N.am   42  ASN42      -0.0877
     20  N         47.8830   55.3880   -1.5220 N.3    45  SER45      -0.1217
     21  CA        47.7390   56.2350   -0.3400 C.3    45  SER45       0.1889
     22  C         46.3580   56.7900   -0.1840 C.2    45  SER45       0.2288
     23  O         45.8260   56.9080    0.9310 O.2    45  SER45      -0.2866
     24  CB        48.7070   57.4070   -0.4300 C.3    45  SER45       0.2089
     25  OG        49.5240   57.4660    0.7230 O.3    45  SER45      -0.2183
     26  N         43.2950   55.1750    2.3020 N.3    49  LYS49      -0.1245
     27  CA        42.8690   56.1890    3.2590 C.3    49  LYS49       0.1561
     28  C         41.3590   56.4210    3.2050 C.2    49  LYS49       0.2260
     29  O         40.7260   56.8240    4.1950 O.2    49  LYS49      -0.2867
     30  CB        43.6220   57.5020    3.0250 C.3    49  LYS49       0.0271
     31  CG        42.8050   58.6270    2.4070 C.3    49  LYS49       0.0035
     32  CD        43.0380   59.9520    3.1380 C.3    49  LYS49       0.0206
     33  CE        43.0830   61.1060    2.1540 C.3    49  LYS49       0.1093
     34  NZ        42.7060   62.3580    2.8330 N.3    49  LYS49      -0.1314
     35  N         36.6750   54.6860   10.1470 N.3    56  ARG56      -0.1245
     36  CA        36.9510   55.4770   11.3370 C.3    56  ARG56       0.1563
     37  C         35.7520   56.3260   11.6420 C.2    56  ARG56       0.2260
     38  O         35.1700   56.2170   12.7120 O.2    56  ARG56      -0.2867
     39  CB        38.1660   56.3670   11.1190 C.3    56  ARG56       0.0307
     40  CG        39.3880   55.6130   10.6530 C.3    56  ARG56       0.0489
     41  CD        40.5860   56.5240   10.5650 C.3    56  ARG56       0.2205
     42  NE        41.0150   56.9580   11.8960 N.pl3  56  ARG56      -0.0865
     43  CZ        41.6250   58.1130   12.1470 C.cat  56  ARG56       0.5346
     44  NH1       41.8770   58.9540   11.1500 N.pl3  56  ARG56       0.1354
     45  NH2       42.0020   58.4180   13.3870 N.pl3  56  ARG56       0.1354
     46  N         33.6160   56.2820   15.0310 N.3    60  ARG60      -0.1245
     47  CA        33.5230   57.4020   15.9510 C.3    60  ARG60       0.1563
     48  C         32.0800   57.6050   16.2980 C.2    60  ARG60       0.2260
     49  O         31.6690   57.3760   17.4370 O.2    60  ARG60      -0.2867
     50  CB        34.0520   58.6890   15.3160 C.3    60  ARG60       0.0307
     51  CG        35.5630   58.8150   15.2240 C.3    60  ARG60       0.0489
     52  CD        35.8540   60.0480   14.4220 C.3    60  ARG60       0.2205
     53  NE        37.2620   60.2830   14.1310 N.pl3  60  ARG60      -0.0865
     54  CZ        37.7460   60.4680   12.9020 C.cat  60  ARG60       0.5346
     55  NH1       36.9400   60.4100   11.8450 N.pl3  60  ARG60       0.1354
     56  NH2       39.0010   60.8690   12.7340 N.pl3  60  ARG60       0.1354
     57  N         57.8120   58.4860    4.2190 N.3   112  PHE112     -0.1241
     58  CA        56.3920   58.3590    3.8600 C.3   112  PHE112      0.1605
     59  C         55.6470   57.1690    4.4710 C.2   112  PHE112      0.2264
     60  O         54.6510   57.3400    5.1900 O.2   112  PHE112     -0.2867
     61  CB        56.2540   58.3020    2.3320 C.3   112  PHE112      0.0534
     62  CG        54.8320   58.2970    1.8380 C.ar  112  PHE112     -0.0203
     63  CD1       54.0300   57.1680    1.9650 C.ar  112  PHE112     -0.0042
     64  CD2       54.3050   59.4100    1.2070 C.ar  112  PHE112     -0.0042
     65  CE1       52.7350   57.1510    1.4680 C.ar  112  PHE112     -0.0003
     66  CE2       53.0070   59.4000    0.7040 C.ar  112  PHE112     -0.0003
     67  CZ        52.2250   58.2680    0.8350 C.ar  112  PHE112     -0.0000
     68  N         55.1540   56.9160    7.9330 N.3   115  LYS115     -0.1245
     69  CA        54.0860   57.7280    8.4860 C.3   115  LYS115      0.1561
     70  C         52.9270   56.7500    8.4080 C.2   115  LYS115      0.2260
     71  O         52.3600   56.3720    9.4250 O.2   115  LYS115     -0.2867
     72  CB        53.7880   58.9620    7.6170 C.3   115  LYS115      0.0271
     73  CG        52.6750   59.8660    8.1730 C.3   115  LYS115      0.0035
     74  CD        52.0560   60.7460    7.0900 C.3   115  LYS115      0.0206
     75  CE        51.3920   59.9080    5.9980 C.3   115  LYS115      0.1093
     76  NZ        50.8930   60.7300    4.8660 N.3   115  LYS115     -0.1314
     77  N         50.4440   55.8180   10.9250 N.3   119  ASP119     -0.1239
     78  CA        49.0570   56.2220   10.7630 C.3   119  ASP119      0.1674
     79  C         48.1660   55.0330   11.0840 C.2   119  ASP119      0.2266
     80  O         47.3540   55.0760   12.0150 O.2   119  ASP119     -0.2867
     81  CB        48.7830   56.6970    9.3290 C.3   119  ASP119      0.1410
     82  CG        49.2790   58.1180    9.0660 C.2   119  ASP119      0.3668
     83  OD1       49.7670   58.7750   10.0080 O.co2 119  ASP119     -0.2456
     84  OD2       49.1750   58.5820    7.9050 O.co2 119  ASP119     -0.2456
     85  N         48.0530   53.4090   14.4540 N.3   122  ARG122     -0.1231
     86  CA        47.4030   54.4290   15.2610 C.3   122  ARG122      0.1694
     87  C         45.9000   54.2210   15.2700 C.2   122  ARG122      0.2592
     88  O         45.2540   54.3800   16.3140 O.2   122  ARG122     -0.2718
     89  CB        47.7350   55.8240   14.7330 C.3   122  ARG122      0.0321
     90  CG        47.2430   56.9350   15.6310 C.3   122  ARG122      0.0489
     91  CD        47.4880   58.2810   15.0050 C.3   122  ARG122      0.2205
     92  NE        46.2420   58.9100   14.5930 N.pl3 122  ARG122     -0.0865
     93  CZ        46.0860   59.5570   13.4490 C.cat 122  ARG122      0.5346
     94  NH1       47.1080   59.6520   12.6020 N.pl3 122  ARG122      0.1354
     95  NH2       44.9200   60.1310   13.1670 N.pl3 122  ARG122      0.1354
     96  N         45.3490   53.9380   14.0890 N.am  123  TYR123     -0.1976
     97  CA        43.9250   53.6680   13.9260 C.3   123  TYR123      0.1639
     98  C         43.5960   52.4040   14.7200 C.2   123  TYR123      0.2290
     99  O         42.5330   52.2890   15.3410 O.2   123  TYR123     -0.2864
    100  CB        43.6100   53.3980   12.4660 C.3   123  TYR123      0.0560
    101  CG        44.0690   54.4550   11.5020 C.ar  123  TYR123     -0.0198
    102  CD1       44.0990   55.7990   11.8550 C.ar  123  TYR123     -0.0009
    103  CD2       44.4190   54.1080   10.2040 C.ar  123  TYR123     -0.0009
    104  CE1       44.4610   56.7730   10.9230 C.ar  123  TYR123      0.0417
    105  CE2       44.7840   55.0630    9.2670 C.ar  123  TYR123      0.0417
    106  CZ        44.8040   56.3930    9.6230 C.ar  123  TYR123      0.1957
    107  OH        45.1610   57.3200    8.6620 O.3   123  TYR123     -0.2866
    108  N         56.2940   68.9130    2.4700 N.3   160  PRO160     -0.2102
    109  CA        55.0700   68.1800    2.7760 C.3   160  PRO160      0.1504
    110  C         55.2700   66.7040    2.5030 C.2   160  PRO160      0.2575
    111  O         55.1470   66.2060    1.3980 O.2   160  PRO160     -0.2718
    112  CB        54.0550   68.7640    1.8090 C.3   160  PRO160      0.0282
    113  CG        54.8740   69.1740    0.6370 C.3   160  PRO160      0.0208
    114  CD        56.1470   69.6700    1.2140 C.3   160  PRO160      0.0893
    115  N         55.5440   66.0700    3.6300 N.am  161  ILE161     -0.1980
    116  CA        55.7790   64.6660    3.8460 C.3   161  ILE161      0.1595
    117  C         56.3830   64.7530    5.2340 C.2   161  ILE161      0.2287
    118  O         56.1230   63.8930    6.0640 O.2   161  ILE161     -0.2864
    119  CB        56.6610   63.8900    2.8430 C.3   161  ILE161      0.0276
    120  CG1       56.8580   62.4590    3.3560 C.3   161  ILE161      0.0022
    121  CG2       58.0070   64.5830    2.6070 C.3   161  ILE161      0.0022
    122  CD1       57.4450   61.5210    2.3660 C.3   161  ILE161      0.0001
    123  N         53.7270   67.4330    7.1760 N.3   164  GLY164     -0.1210
    124  CA        52.6110   66.5430    7.3970 C.3   164  GLY164      0.1956
    125  C         52.8800   65.6320    8.5700 C.2   164  GLY164      0.2611
    126  O         52.0740   65.5520    9.4990 O.2   164  GLY164     -0.2717
    127  N         54.0240   64.9610    8.5380 N.am  165  LEU165     -0.1979
    128  CA        54.3940   64.0710    9.6250 C.3   165  LEU165      0.1596
    129  C         54.1800   64.7900   10.9410 C.2   165  LEU165      0.2287
    130  O         53.3300   64.3880   11.7370 O.2   165  LEU165     -0.2864
    131  CB        55.8620   63.6330    9.4930 C.3   165  LEU165      0.0297
    132  CG        56.6410   62.9930   10.6590 C.3   165  LEU165      0.0022
    133  CD1       55.8090   61.9910   11.4550 C.3   165  LEU165      0.0001
    134  CD2       57.8770   62.3290   10.0950 C.3   165  LEU165      0.0001
    135  N         52.5740   67.1550   11.8730 N.3   167  LEU167     -0.1231
    136  CA        51.1750   67.3130   12.1940 C.3   167  LEU167      0.1693
    137  C         50.7010   66.0430   12.8810 C.2   167  LEU167      0.2592
    138  O         50.4490   66.0310   14.0890 O.2   167  LEU167     -0.2718
    139  CB        50.3760   67.5330   10.9100 C.3   167  LEU167      0.0284
    140  CG        48.8540   67.5130   11.0270 C.3   167  LEU167      0.0019
    141  CD1       48.3930   68.3970   12.1900 C.3   167  LEU167      0.0001
    142  CD2       48.2570   67.9590    9.7040 C.3   167  LEU167      0.0001
    143  N         50.6240   64.9810   12.0810 N.am  168  ASN168     -0.1974
    144  CA        50.1690   63.6570   12.5060 C.3   168  ASN168      0.1688
    145  C         50.9010   63.0970   13.7240 C.2   168  ASN168      0.2292
    146  O         50.2790   62.5940   14.6630 O.2   168  ASN168     -0.2864
    147  CB        50.2530   62.6540   11.3400 C.3   168  ASN168      0.1181
    148  CG        49.1490   62.8510   10.2840 C.2   168  ASN168      0.2629
    149  OD1       48.0470   63.3380   10.5740 O.2   168  ASN168     -0.2716
    150  ND2       49.4370   62.4250    9.0530 N.am  168  ASN168     -0.0877
    151  N         49.7780   64.9200   16.5460 N.3   171  VAL171     -0.1245
    152  CA        48.4750   64.4260   16.9790 C.3   171  VAL171      0.1561
    153  C         48.5380   63.0510   17.6390 C.2   171  VAL171      0.2260
    154  O         47.6470   62.7030   18.4270 O.2   171  VAL171     -0.2867
    155  CB        47.4000   64.4330   15.8420 C.3   171  VAL171      0.0252
    156  CG1       47.5760   63.2610   14.9070 C.3   171  VAL171      0.0019
    157  CG2       45.9930   64.4120   16.4430 C.3   171  VAL171      0.0019
    158  N         45.1180   62.6660   20.8130 N.3   175  GLU175     -0.1245
    159  CA        44.1630   61.5720   20.6270 C.3   175  GLU175      0.1567
    160  C         44.6580   60.2600   21.2510 C.2   175  GLU175      0.2260
    161  O         43.9040   59.5680   21.9540 O.2   175  GLU175     -0.2867
    162  CB        43.9130   61.3790   19.1040 C.3   175  GLU175      0.0388
    163  CG        43.0710   60.1440   18.6490 C.3   175  GLU175      0.1160
    164  CD        43.2140   59.7990   17.1380 C.2   175  GLU175      0.3649
    165  OE1       43.7200   60.6300   16.3500 O.co2 175  GLU175     -0.2457
    166  OE2       42.8230   58.6820   16.7330 O.co2 175  GLU175     -0.2457
    167  N         51.3190   73.1660   -1.1520 N.3   201  ASP201     -0.1239
    168  CA        51.3580   72.0350   -0.2150 C.3   201  ASP201      0.1674
    169  C         51.8720   72.3340    1.1890 C.2   201  ASP201      0.2266
    170  O         51.2010   72.0500    2.1800 O.2   201  ASP201     -0.2867
    171  CB        52.1330   70.8430   -0.8010 C.3   201  ASP201      0.1410
    172  CG        52.3590   70.9580   -2.3010 C.2   201  ASP201      0.3668
    173  OD1       51.4470   70.6000   -3.0810 O.co2 201  ASP201     -0.2456
    174  OD2       53.4600   71.4090   -2.6940 O.co2 201  ASP201     -0.2456
    175  N         49.6940   74.9010    3.2240 N.3   204  LEU204     -0.1231
    176  CA        48.4970   74.2210    3.6750 C.3   204  LEU204      0.1693
    177  C         48.7480   73.4840    4.9580 C.2   204  LEU204      0.2591
    178  O         48.1230   73.7690    5.9770 O.2   204  LEU204     -0.2718
    179  CB        48.0460   73.2440    2.5900 C.3   204  LEU204      0.0284
    180  CG        47.9950   73.8550    1.1810 C.3   204  LEU204      0.0019
    181  CD1       47.7790   72.7730    0.1360 C.3   204  LEU204      0.0001
    182  CD2       46.9030   74.9210    1.0980 C.3   204  LEU204      0.0001
    183  N         49.6470   72.5100    4.8860 N.am  205  ILE205     -0.1980
    184  CA        49.9880   71.7200    6.0500 C.3   205  ILE205      0.1595
    185  C         50.2950   72.6870    7.1710 C.2   205  ILE205      0.2287
    186  O         49.7120   72.5970    8.2480 O.2   205  ILE205     -0.2864
    187  CB        51.2390   70.8650    5.8180 C.3   205  ILE205      0.0276
    188  CG1       51.1430   70.1220    4.4930 C.3   205  ILE205      0.0022
    189  CG2       51.3930   69.8670    6.9530 C.3   205  ILE205      0.0022
    190  CD1       52.2620   69.1870    4.3030 C.3   205  ILE205      0.0001
    191  N         47.2100   74.1760    9.2140 N.3   208  LEU208     -0.1245
    192  CA        46.5440   73.1260    9.9720 C.3   208  LEU208      0.1561
    193  C         47.1880   72.8180   11.2950 C.2   208  LEU208      0.2260
    194  O         46.4910   72.6220   12.2850 O.2   208  LEU208     -0.2867
    195  CB        46.4540   71.8530    9.1390 C.3   208  LEU208      0.0270
    196  CG        45.4610   71.9000    7.9770 C.3   208  LEU208      0.0019
    197  CD1       45.4700   73.2400    7.2540 C.3   208  LEU208      0.0001
    198  CD2       45.7930   70.8080    7.0130 C.3   208  LEU208      0.0001
    199  N         45.7450   73.8370   14.9110 N.3   212  ASN212     -0.1240
    200  CA        45.7620   72.8100   15.9400 C.3   212  ASN212      0.1653
    201  C         46.2580   73.2100   17.3010 C.2   212  ASN212      0.2266
    202  O         45.8650   72.6120   18.3000 O.2   212  ASN212     -0.2867
    203  CB        46.5470   71.6070   15.4480 C.3   212  ASN212      0.1155
    204  CG        45.6660   70.6140   14.7570 C.2   212  ASN212      0.2627
    205  OD1       44.7290   70.0900   15.3640 O.2   212  ASN212     -0.2716
    206  ND2       45.9280   70.3590   13.4770 N.am  212  ASN212     -0.0877
@<TRIPOS>BOND
     1     1     2    1
     2    18    17    2
     3    16    17    1
     4    16    13    1
     5    12    13    1
     6    12     3   am
     7     2     5    1
     8     2     3    1
     9     5     6    1
    10    14    13    1
    11    14    15    2
    12    17    19   am
    13     3     4    2
    14    10     9    1
    15   173   172   ar
    16     6     7    1
    17   174   172   ar
    18     7     8    1
    19     9     8    2
    20     9    11    1
    21   172   171    1
    22    20    21    1
    23   167   168    1
    24   171   168    1
    25    24    21    1
    26    24    25    1
    27    21    22    1
    28   168   169    1
    29    22    23    2
    30   181   180    1
    31   113   114    1
    32   113   112    1
    33    66    67   ar
    34    66    64   ar
    35    67    65   ar
    36   182   180    1
    37   180   179    1
    38   169   170    2
    39    64    62   ar
    40   114   108    1
    41   111   110    2
    42    65    63   ar
    43   112   109    1
    44    62    63   ar
    45    62    61    1
    46    33    34    1
    47    33    32    1
    48    26    27    1
    49    61    58    1
    50   122   120    1
    51    31    30    1
    52    31    32    1
    53   108   109    1
    54   110   109    1
    55   110   115   am
    56   179   176    1
    57   121   119    1
    58   119   120    1
    59   119   116    1
    60    30    27    1
    61    28    27    1
    62    28    29    2
    63   175   176    1
    64   115   116    1
    65   176   177    1
    66   116   117    1
    67    58    57    1
    68    58    59    1
    69   190   188    1
    70    59    60    2
    71   188   187    1
    72    76    75    1
    73   183   177   am
    74   183   184    1
    75   177   178    2
    76   117   118    2
    77   187   184    1
    78   187   189    1
    79    75    74    1
    80   184   185    1
    81   198   196    1
    82    74    73    1
    83   185   186    2
    84   123   124    1
    85   197   196    1
    86   124   125    1
    87    72    73    1
    88    72    69    1
    89    84    82   ar
    90    68    69    1
    91   196   195    1
    92    70    69    1
    93    70    71    2
    94   127   125   am
    95   127   128    1
    96   125   126    2
    97   107   106    1
    98   150   148   am
    99    82    81    1
   100    82    83   ar
   101   195   192    1
   102   191   192    1
   103   105   106   ar
   104   105   103   ar
   105    81    78    1
   106   131   128    1
   107   131   132    1
   108   106   104   ar
   109   128   129    1
   110   142   140    1
   111   192   193    1
   112   134   132    1
   113    35    36    1
   114   103   101   ar
   115   148   149    2
   116   148   147    1
   117    41    40    1
   118    41    42    1
   119    40    39    1
   120   132   133    1
   121    78    77    1
   122    78    79    1
   123   139   140    1
   124   139   136    1
   125   104   102   ar
   126   129   130    2
   127   140   141    1
   128    79    80    2
   129    39    36    1
   130    44    43    1
   131   193   194    2
   132    36    37    1
   133   147   144    1
   134   101   102   ar
   135   101   100    1
   136    37    38    2
   137    55    54    1
   138   135   136    1
   139    42    43    2
   140   143   144    1
   141   143   137   am
   142    43    45    1
   143   136   137    1
   144   100    97    1
   145   144   145    1
   146    94    93    1
   147    56    54    1
   148   137   138    2
   149    54    53    2
   150    95    93    1
   151    93    92    2
   152   206   204   am
   153   145   146    2
   154    97    96    1
   155    97    98    1
   156    96    87   am
   157    53    52    1
   158    52    51    1
   159    85    86    1
   160    92    91    1
   161    98    99    2
   162    89    86    1
   163    89    90    1
   164   204   205    2
   165   204   203    1
   166   156   155    1
   167   199   200    1
   168    91    90    1
   169    46    47    1
   170    51    50    1
   171    86    87    1
   172    87    88    2
   173    50    47    1
   174   203   200    1
   175   155   157    1
   176   155   152    1
   177   200   201    1
   178    47    48    1
   179    48    49    2
   180   165   164   ar
   181   151   152    1
   182   166   164   ar
   183   152   153    1
   184   164   163    1
   185   201   202    2
   186   153   154    2
   187   163   162    1
   188   162   159    1
   189   159   158    1
   190   159   160    1
   191   160   161    2
