@<TRIPOS>MOLECULE
tmp/1a3bB01.pdb
 221 222 0 0 0
SMALL
GASTEIGER

@<TRIPOS>ATOM
      1  N          5.9120   -6.4710   17.4050 N.3    43  HIS43      -0.1241
      2  CA         6.0380   -7.8740   17.8460 C.3    43  HIS43       0.1621
      3  C          6.8440   -7.9800   19.1500 C.2    43  HIS43       0.2264
      4  O          6.9000   -9.0420   19.7860 O.2    43  HIS43      -0.2867
      5  CB         6.6640   -8.7280   16.7340 C.3    43  HIS43       0.0745
      6  CG         8.1930   -8.8120   16.7680 C.ar   43  HIS43       0.0817
      7  ND1        8.9810   -8.1520   15.8300 N.ar   43  HIS43      -0.2268
      8  CD2        9.0530   -9.4670   17.5920 C.ar   43  HIS43       0.1154
      9  CE1       10.2460   -8.4150   16.0980 C.ar   43  HIS43       0.1986
     10  NE2       10.3070   -9.1970   17.1450 N.ar   43  HIS43      -0.2212
     11  N          2.7580  -10.4870   20.3120 N.3    47  TYR47      -0.1241
     12  CA         2.9750  -11.6640   19.4540 C.3    47  TYR47       0.1605
     13  C          2.2300  -12.9340   20.0840 C.2    47  TYR47       0.2264
     14  O          2.8210  -13.8330   20.6300 O.2    47  TYR47      -0.2867
     15  CB         4.4460  -11.9810   19.2690 C.3    47  TYR47       0.0534
     16  CG         4.6440  -12.8370   18.0230 C.ar   47  TYR47      -0.0201
     17  CD1        4.2060  -12.3610   16.7810 C.ar   47  TYR47      -0.0009
     18  CD2        5.2410  -14.0940   18.1240 C.ar   47  TYR47      -0.0009
     19  CE1        4.3620  -13.1480   15.6380 C.ar   47  TYR47       0.0417
     20  CE2        5.3960  -14.8840   16.9800 C.ar   47  TYR47       0.0417
     21  CZ         4.9550  -14.4110   15.7380 C.ar   47  TYR47       0.1957
     22  OH         5.1030  -15.1820   14.6280 O.3    47  TYR47      -0.2866
     23  N          3.2690  -16.6470   20.5510 N.3    50  TRP50      -0.1241
     24  CA         4.2550  -17.0430   21.5920 C.3    50  TRP50       0.1605
     25  C          3.7260  -16.6000   22.9570 C.2    50  TRP50       0.2264
     26  O          4.4560  -16.6130   23.9600 O.2    50  TRP50      -0.2867
     27  CB         5.5910  -16.2900   21.2860 C.3    50  TRP50       0.0550
     28  CG         6.3840  -16.8320   20.0980 C.ar   50  TRP50       0.0003
     29  CD1        6.1300  -17.9340   19.3790 C.ar   50  TRP50       0.0946
     30  CD2        7.5500  -16.2210   19.5690 C.ar   50  TRP50       0.0152
     31  NE1        7.1500  -18.0230   18.3750 N.ar   50  TRP50      -0.2442
     32  CE2        7.9710  -17.0070   18.5050 C.ar   50  TRP50       0.0810
     33  CE3        8.2780  -15.0730   19.9000 C.ar   50  TRP50       0.0012
     34  CZ2        9.1010  -16.7060   17.7330 C.ar   50  TRP50       0.0191
     35  CZ3        9.4140  -14.7790   19.1180 C.ar   50  TRP50       0.0001
     36  CH2        9.8050  -15.5580   18.0850 C.ar   50  TRP50       0.0015
     37  N          0.3870   -9.7910   12.7730 N.3    92  TRP92      -0.1241
     38  CA         1.1320  -10.7920   13.5560 C.3    92  TRP92       0.1605
     39  C          0.7170  -12.2100   13.1560 C.2    92  TRP92       0.2264
     40  O          1.4040  -13.1900   13.4610 O.2    92  TRP92      -0.2867
     41  CB         0.8930  -10.6250   15.0680 C.3    92  TRP92       0.0550
     42  CG        -0.5860  -10.5580   15.4880 C.ar   92  TRP92       0.0003
     43  CD1       -1.3120   -9.4510   15.6910 C.ar   92  TRP92       0.0946
     44  CD2       -1.4310  -11.6790   15.7440 C.ar   92  TRP92       0.0152
     45  NE1       -2.6250   -9.8670   16.0790 N.ar   92  TRP92      -0.2442
     46  CE2       -2.6750  -11.1750   16.1040 C.ar   92  TRP92       0.0810
     47  CE3       -1.2490  -13.0670   15.6980 C.ar   92  TRP92       0.0012
     48  CZ2       -3.7690  -11.9870   16.4290 C.ar   92  TRP92       0.0191
     49  CZ3       -2.3580  -13.8780   16.0250 C.ar   92  TRP92       0.0001
     50  CH2       -3.5580  -13.3610   16.3730 C.ar   92  TRP92       0.0015
     51  N          0.3800  -13.4060   10.0400 N.3    94  GLU94      -0.1231
     52  CA         1.0710  -13.9180    8.8510 C.3    94  GLU94       0.1699
     53  C          2.5730  -13.5750    8.7510 C.2    94  GLU94       0.2592
     54  O          3.4400  -14.4140    9.0320 O.2    94  GLU94      -0.2718
     55  CB         0.4350  -13.3740    7.5730 C.3    94  GLU94       0.0402
     56  CG         0.9130  -14.1120    6.3190 C.3    94  GLU94       0.1161
     57  CD         0.5960  -13.3660    5.0230 C.2    94  GLU94       0.3649
     58  OE1       -0.3320  -12.4710    5.0040 O.co2  94  GLU94      -0.2457
     59  OE2        1.2560  -13.6340    3.9470 O.co2  94  GLU94      -0.2457
     60  N          2.8790  -12.3440    8.3350 N.am   95  ASN95      -0.1960
     61  CA         4.2810  -11.9720    8.0150 C.3    95  ASN95       0.1819
     62  C          4.8380  -10.7210    8.7270 C.2    95  ASN95       0.2621
     63  O          5.8180  -10.1120    8.2680 O.2    95  ASN95      -0.2715
     64  CB         4.3900  -11.6560    6.5310 C.3    95  ASN95       0.1195
     65  CG         3.3670  -10.6080    6.0870 C.2    95  ASN95       0.2630
     66  OD1        2.6340  -10.0730    6.9200 O.2    95  ASN95      -0.2716
     67  ND2        3.2690  -10.2770    4.8150 N.am   95  ASN95      -0.0877
     68  N          4.2430  -10.3310    9.8270 N.am   96  LEU96      -0.1977
     69  CA         4.7310   -9.1720   10.6100 C.3    96  LEU96       0.1596
     70  C          4.6690   -7.8550    9.8100 C.2    96  LEU96       0.2287
     71  O          5.4660   -6.9300   10.0320 O.2    96  LEU96      -0.2864
     72  CB         6.2030   -9.3680   11.0010 C.3    96  LEU96       0.0297
     73  CG         6.4150  -10.4810   12.0300 C.3    96  LEU96       0.0022
     74  CD1        7.8200  -10.4720   12.6400 C.3    96  LEU96       0.0001
     75  CD2        5.4510  -10.3950   13.2130 C.3    96  LEU96       0.0001
     76  N          8.3500  -16.3660    2.8310 N.3   173  ILE173     -0.1245
     77  CA         7.4510  -15.3970    3.4830 C.3   173  ILE173      0.1561
     78  C          7.1060  -14.2890    2.4880 C.2   173  ILE173      0.2260
     79  O          7.9710  -13.8030    1.7460 O.2   173  ILE173     -0.2867
     80  CB         8.1390  -14.7720    4.7020 C.3   173  ILE173      0.0252
     81  CG1        8.6350  -15.8150    5.7060 C.3   173  ILE173      0.0019
     82  CG2        7.2210  -13.8370    5.4930 C.3   173  ILE173      0.0019
     83  CD1        8.0130  -15.6530    7.0950 C.3   173  ILE173      0.0001
     84  N         24.6020   -9.2350   10.4890 N.3   193  ASP193     -0.1225
     85  CA        23.1530   -9.3190   10.5990 C.3   193  ASP193      0.1805
     86  C         22.7240   -9.0660   12.0280 C.2   193  ASP193      0.2598
     87  O         23.5290   -9.1710   12.9650 O.2   193  ASP193     -0.2718
     88  CB        22.6990  -10.7370   10.2290 C.3   193  ASP193      0.1424
     89  CG        21.1890  -10.8580   10.0130 C.2   193  ASP193      0.3668
     90  OD1       20.4650   -9.7970    9.9040 O.co2 193  ASP193     -0.2456
     91  OD2       20.6410  -12.0250    9.9380 O.co2 193  ASP193     -0.2456
     92  N         21.4680   -8.7260   12.1450 N.am  194  ALA194     -0.1966
     93  CA        20.8410   -8.5710   13.4440 C.3   194  ALA194      0.1728
     94  C         20.5010   -9.9800   13.8940 C.2   194  ALA194      0.2616
     95  O         20.5480  -10.9290   13.1000 O.2   194  ALA194     -0.2715
     96  CB        19.5860   -7.7050   13.3180 C.3   194  ALA194      0.0334
     97  N         20.1740  -10.1260   15.1430 N.am  195  CYS195     -0.1954
     98  CA        19.8200  -11.4420   15.6730 C.3   195  CYS195      0.1843
     99  C         18.8100  -11.2820   16.7920 C.2   195  CYS195      0.2625
    100  O         18.3990  -10.1640   17.1250 O.2   195  CYS195     -0.2714
    101  CB        21.0700  -12.1500   16.1990 C.3   195  CYS195      0.0997
    102  SG        20.9030  -13.9640   16.2280 S.3   195  CYS195     -0.0797
    103  N         18.4410  -12.4130   17.3340 N.am  196  GLU196     -0.1963
    104  CA        17.4840  -12.4850   18.4360 C.3   196  GLU196      0.1733
    105  C         17.9080  -11.5350   19.5670 C.2   196  GLU196      0.2616
    106  O         19.0150  -11.6480   20.1150 O.2   196  GLU196     -0.2715
    107  CB        17.4510  -13.9170   18.9660 C.3   196  GLU196      0.0429
    108  CG        16.9640  -14.0070   20.4110 C.3   196  GLU196      0.1163
    109  CD        15.4590  -13.7820   20.5390 C.2   196  GLU196      0.3649
    110  OE1       14.7010  -13.9000   19.5020 O.co2 196  GLU196     -0.2457
    111  OE2       14.9500  -13.4750   21.6820 O.co2 196  GLU196     -0.2457
    112  N         17.0090  -10.6140   19.8820 N.am  197  GLY197     -0.1955
    113  CA        17.2150   -9.6310   20.9640 C.3   197  GLY197      0.1869
    114  C         17.4450   -8.2200   20.4020 C.2   197  GLY197      0.2309
    115  O         17.3800   -7.2210   21.1360 O.2   197  GLY197     -0.2863
    116  N         15.6410   -7.1040   17.7880 N.3   199  SER199     -0.1217
    117  CA        14.3300   -6.6540   17.2860 C.3   199  SER199      0.1889
    118  C         13.9050   -5.3740   18.0040 C.2   199  SER199      0.2288
    119  O         14.0900   -5.2350   19.2210 O.2   199  SER199     -0.2866
    120  CB        13.2560   -7.7100   17.5540 C.3   199  SER199      0.2089
    121  OG        13.4580   -8.8380   16.7200 O.3   199  SER199     -0.2183
    122  N         14.4670   -3.2460   13.1420 N.3   219  VAL219     -0.1231
    123  CA        14.7380   -4.6960   13.1000 C.3   219  VAL219      0.1692
    124  C         13.4150   -5.4330   13.3300 C.2   219  VAL219      0.2593
    125  O         12.7700   -5.2730   14.3760 O.2   219  VAL219     -0.2718
    126  CB        15.7480   -5.0810   14.1820 C.3   219  VAL219      0.0266
    127  CG1       16.1300   -6.5630   14.1390 C.3   219  VAL219      0.0020
    128  CG2       17.0660   -4.3110   14.0710 C.3   219  VAL219      0.0020
    129  N         13.0310   -6.2320   12.3440 N.am  220  SER220     -0.1938
    130  CA        11.7400   -6.9450   12.3800 C.3   220  SER220      0.2055
    131  C         11.8950   -8.4720   12.4460 C.2   220  SER220      0.2643
    132  O         11.5420   -9.1140   13.4420 O.2   220  SER220     -0.2714
    133  CB        10.9170   -6.6160   11.1390 C.3   220  SER220      0.2130
    134  OG         9.5900   -7.0940   11.3010 O.3   220  SER220     -0.2179
    135  N         12.4010   -9.0720   11.3780 N.am  221  TRP221     -0.1959
    136  CA        12.5500  -10.5390   11.3530 C.3   221  TRP221      0.1771
    137  C         13.6670  -10.9840   10.4170 C.2   221  TRP221      0.2620
    138  O         14.2250  -10.1810    9.6570 O.2   221  TRP221     -0.2715
    139  CB        11.2380  -11.2110   10.9090 C.3   221  TRP221      0.0590
    140  CG        10.6980  -10.7580    9.5410 C.ar  221  TRP221      0.0006
    141  CD1        9.9770   -9.6580    9.2760 C.ar  221  TRP221      0.0946
    142  CD2       10.8740  -11.4600    8.3150 C.ar  221  TRP221      0.0152
    143  NE1        9.6770   -9.6720    7.8730 N.ar  221  TRP221     -0.2442
    144  CE2       10.2060  -10.7410    7.3310 C.ar  221  TRP221      0.0810
    145  CE3       11.5340  -12.6420    7.9640 C.ar  221  TRP221      0.0012
    146  CZ2       10.1420  -11.1510    5.9920 C.ar  221  TRP221      0.0191
    147  CZ3       11.4740  -13.0410    6.6120 C.ar  221  TRP221      0.0001
    148  CH2       10.8090  -12.3310    5.6740 C.ar  221  TRP221      0.0015
    149  N         13.9380  -12.2660   10.5330 N.am  222  GLY222     -0.1940
    150  CA        14.9640  -12.9550    9.7520 C.3   222  GLY222      0.2014
    151  C         14.9320  -14.4400   10.0960 C.2   222  GLY222      0.2639
    152  O         14.5910  -14.8320   11.2200 O.2   222  GLY222     -0.2714
    153  N         15.2790  -15.2330    9.1100 N.am  223  GLU223     -0.1963
    154  CA        15.3240  -16.6880    9.2600 C.3   223  GLU223      0.1733
    155  C         16.7380  -17.0760    9.6550 C.2   223  GLU223      0.2617
    156  O         17.6110  -17.2740    8.7960 O.2   223  GLU223     -0.2715
    157  CB        14.8870  -17.3380    7.9560 C.3   223  GLU223      0.0429
    158  CG        13.4220  -17.0400    7.6340 C.3   223  GLU223      0.1163
    159  CD        13.0700  -17.2620    6.1660 C.2   223  GLU223      0.3649
    160  OE1       13.9540  -17.7380    5.3590 O.co2 223  GLU223     -0.2457
    161  OE2       11.8870  -16.9790    5.7390 O.co2 223  GLU223     -0.2457
    162  N         16.8970  -17.1660   10.9550 N.am  224  GLY224     -0.1940
    163  CA        18.1880  -17.4270   11.5730 C.3   224  GLY224      0.2014
    164  C         18.9130  -16.0910   11.6580 C.2   224  GLY224      0.2639
    165  O         18.2840  -15.0220   11.6290 O.2   224  GLY224     -0.2714
    166  N         20.2140  -16.1640   11.7520 N.am  225  CYS225     -0.1967
    167  CA        21.0440  -14.9620   11.8330 C.3   225  CYS225      0.1712
    168  C         22.3420  -15.1600   11.0640 C.2   225  CYS225      0.2296
    169  O         23.0800  -16.1240   11.2990 O.2   225  CYS225     -0.2864
    170  CB        21.3890  -14.6510   13.2890 C.3   225  CYS225      0.0983
    171  SG        19.9330  -14.6030   14.3770 S.3   225  CYS225     -0.0798
    172  N         22.8990  -16.0310    8.0820 N.3   227  ARG227     -0.1245
    173  CA        22.9440  -17.2250    7.2340 C.3   227  ARG227      0.1563
    174  C         23.2040  -16.7950    5.7970 C.2   227  ARG227      0.2260
    175  O         22.6660  -15.7840    5.3280 O.2   227  ARG227     -0.2867
    176  CB        21.6020  -17.9540    7.2660 C.3   227  ARG227      0.0307
    177  CG        21.3950  -18.7980    8.5190 C.3   227  ARG227      0.0489
    178  CD        20.2670  -19.8180    8.3640 C.3   227  ARG227      0.2205
    179  NE        19.6610  -20.2010    9.6450 N.pl3 227  ARG227     -0.0865
    180  CZ        18.4590  -20.7790    9.7630 C.cat 227  ARG227      0.5346
    181  NH1       17.7130  -21.0500    8.6830 N.pl3 227  ARG227      0.1354
    182  NH2       17.9100  -21.1300   10.9330 N.pl3 227  ARG227      0.1354
    183  N         18.6100  -12.7450    4.4800 N.3   231  TYR231     -0.1227
    184  CA        18.7750  -11.3170    4.7780 C.3   231  TYR231      0.1736
    185  C         17.8610  -10.9190    5.9240 C.2   231  TYR231      0.2596
    186  O         16.8360  -11.5670    6.1780 O.2   231  TYR231     -0.2718
    187  CB        18.4190  -10.4860    3.5460 C.3   231  TYR231      0.0548
    188  CG        19.2860  -10.8680    2.3530 C.ar  231  TYR231     -0.0200
    189  CD1       20.5080  -10.2220    2.1470 C.ar  231  TYR231     -0.0009
    190  CD2       18.8620  -11.8720    1.4780 C.ar  231  TYR231     -0.0009
    191  CE1       21.3150  -10.5870    1.0660 C.ar  231  TYR231      0.0417
    192  CE2       19.6710  -12.2410    0.3990 C.ar  231  TYR231      0.0417
    193  CZ        20.8990  -11.6000    0.1950 C.ar  231  TYR231      0.1957
    194  OH        21.6880  -11.9640   -0.8500 O.3   231  TYR231     -0.2866
    195  N         18.2720   -9.8660    6.5890 N.am  232  GLY232     -0.1942
    196  CA        17.5100   -9.2970    7.6970 C.3   232  GLY232      0.2014
    197  C         16.4370   -8.3840    7.1180 C.2   232  GLY232      0.2639
    198  O         16.6920   -7.6100    6.1860 O.2   232  GLY232     -0.2714
    199  N         15.2510   -8.4990    7.6700 N.am  233  PHE233     -0.1959
    200  CA        14.1140   -7.6870    7.2280 C.3   233  PHE233      0.1771
    201  C         13.8120   -6.6310    8.2830 C.2   233  PHE233      0.2619
    202  O         13.8790   -6.9000    9.4920 O.2   233  PHE233     -0.2715
    203  CB        12.9140   -8.5850    6.9640 C.3   233  PHE233      0.0574
    204  CG        13.0520   -9.3240    5.6350 C.ar  233  PHE233     -0.0200
    205  CD1       13.8310  -10.4840    5.5610 C.ar  233  PHE233     -0.0042
    206  CD2       12.4120   -8.8340    4.4920 C.ar  233  PHE233     -0.0042
    207  CE1       13.9700  -11.1550    4.3410 C.ar  233  PHE233     -0.0003
    208  CE2       12.5510   -9.5050    3.2710 C.ar  233  PHE233     -0.0003
    209  CZ        13.3300  -10.6660    3.1960 C.ar  233  PHE233     -0.0000
    210  N         13.4920   -5.4580    7.7780 N.am  234  TYR234     -0.1974
    211  CA        13.2320   -4.2830    8.6100 C.3   234  TYR234      0.1639
    212  C         11.9440   -3.5840    8.2040 C.2   234  TYR234      0.2290
    213  O         11.5690   -3.5680    7.0240 O.2   234  TYR234     -0.2864
    214  CB        14.3660   -3.2800    8.4270 C.3   234  TYR234      0.0560
    215  CG        15.7260   -3.8890    8.7450 C.ar  234  TYR234     -0.0198
    216  CD1       16.3730   -4.6870    7.7940 C.ar  234  TYR234     -0.0009
    217  CD2       16.3180   -3.6520    9.9870 C.ar  234  TYR234     -0.0009
    218  CE1       17.6150   -5.2560    8.0920 C.ar  234  TYR234      0.0417
    219  CE2       17.5590   -4.2220   10.2860 C.ar  234  TYR234      0.0417
    220  CZ        18.2070   -5.0250    9.3390 C.ar  234  TYR234      0.1957
    221  OH        19.4120   -5.5820    9.6340 O.3   234  TYR234     -0.2866
@<TRIPOS>BOND
     1   194   193    1
     2   193   192   ar
     3   193   191   ar
     4   192   190   ar
     5   191   189   ar
     6   190   188   ar
     7    79    78    2
     8   189   188   ar
     9   188   187    1
    10    78    77    1
    11    76    77    1
    12   209   208   ar
    13   209   207   ar
    14   208   206   ar
    15    77    80    1
    16   187   184    1
    17    59    57   ar
    18   207   205   ar
    19   183   184    1
    20   206   204   ar
    21    80    82    1
    22    80    81    1
    23   184   185    1
    24    67    65   am
    25    58    57   ar
    26    57    56    1
    27   175   174    2
    28   160   159   ar
    29   205   204   ar
    30   204   203    1
    31   148   146   ar
    32   148   147   ar
    33    81    83    1
    34   161   159   ar
    35   174   173    1
    36   185   186    2
    37   185   195   am
    38   146   144   ar
    39    65    64    1
    40    65    66    2
    41   159   158    1
    42   198   197    2
    43    56    55    1
    44    64    61    1
    45   195   196    1
    46   147   145   ar
    47   203   200    1
    48   213   212    2
    49   197   199   am
    50   197   196    1
    51   200   199    1
    52   200   201    1
    53   173   176    1
    54   173   172    1
    55   176   177    1
    56   144   143   ar
    57   144   142   ar
    58    55    52    1
    59   158   157    1
    60   210   201   am
    61   210   211    1
    62   216   218   ar
    63   216   215   ar
    64   143   141   ar
    65   157   154    1
    66   145   142   ar
    67    61    60    1
    68    61    62    1
    69   218   220   ar
    70   212   211    1
    71    63    62    2
    72   201   202    2
    73   142   140   ar
    74    60    53   am
    75   178   177    1
    76   178   179    1
    77   214   211    1
    78   214   215    1
    79   181   180    1
    80    62    68   am
    81   215   217   ar
    82    53    52    1
    83    53    54    2
    84   156   155    2
    85    52    51    1
    86   153   154    1
    87   153   151   am
    88   154   155    1
    89   141   140   ar
    90   220   221    1
    91   220   219   ar
    92   140   139    1
    93   179   180    2
    94   155   162   am
    95   138   137    2
    96   150   151    1
    97   150   149    1
    98   180   182    1
    99    70    71    2
   100    70    69    1
   101    68    69    1
   102    90    89   ar
   103    91    89   ar
   104   217   219   ar
   105    89    88    1
   106   151   152    2
   107    88    85    1
   108   137   149   am
   109   137   136    1
   110    84    85    1
   111    85    86    1
   112    69    72    1
   113   139   136    1
   114   162   163    1
   115    72    73    1
   116   168   169    2
   117   168   167    1
   118   133   134    1
   119   133   130    1
   120   136   135    1
   121   135   131   am
   122   163   164    1
   123   165   164    2
   124   164   166   am
   125   166   167    1
   126   167   170    1
   127    86    92   am
   128    86    87    2
   129    73    74    1
   130    73    75    1
   131    92    93    1
   132   129   130    1
   133   129   124   am
   134   130   131    1
   135   131   132    2
   136    37    38    1
   137   123   122    1
   138   123   124    1
   139   123   126    1
   140    95    94    2
   141    39    40    2
   142    39    38    1
   143   170   171    1
   144    96    93    1
   145   124   125    2
   146    93    94    1
   147    38    41    1
   148    94    97   am
   149   128   126    1
   150   127   126    1
   151   171   102    1
   152    22    21    1
   153    41    42    1
   154    97    98    1
   155    42    43   ar
   156    42    44   ar
   157    19    21   ar
   158    19    17   ar
   159    98   101    1
   160    98    99    1
   161    43    45   ar
   162    47    44   ar
   163    47    49   ar
   164    21    20   ar
   165    44    46   ar
   166     7     9   ar
   167     7     6   ar
   168    49    50   ar
   169    45    46   ar
   170     9    10   ar
   171    46    48   ar
   172   101   102    1
   173    50    48   ar
   174   121   120    1
   175     5     6    1
   176     5     2    1
   177     6     8   ar
   178    17    16   ar
   179    99   100    2
   180    99   103   am
   181    20    18   ar
   182    10     8   ar
   183   117   120    1
   184   117   116    1
   185   117   118    1
   186   103   104    1
   187     1     2    1
   188    34    36   ar
   189    34    32   ar
   190     2     3    1
   191   118   119    2
   192    16    18   ar
   193    16    15    1
   194    36    35   ar
   195    31    32   ar
   196    31    29   ar
   197   104   107    1
   198   104   105    1
   199    32    30   ar
   200   107   108    1
   201    35    33   ar
   202     3     4    2
   203    15    12    1
   204    29    28   ar
   205    12    13    1
   206    12    11    1
   207   110   109   ar
   208   105   112   am
   209   105   106    2
   210    30    33   ar
   211    30    28   ar
   212   112   113    1
   213    13    14    2
   214    28    27    1
   215   114   113    1
   216   114   115    2
   217   108   109    1
   218   109   111   ar
   219    23    24    1
   220    27    24    1
   221    24    25    1
   222    25    26    2
