@<TRIPOS>MOLECULE
tmp/1a3eB00.pdb
 145 138 0 0 0
SMALL
GASTEIGER

@<TRIPOS>ATOM
      1  N         11.7500    0.5330   10.4870 N.3    17  MET17      -0.1245
      2  CA        11.8980   -0.8680   10.0930 C.3    17  MET17       0.1570
      3  C         13.3020   -1.0530    9.4650 C.2    17  MET17       0.2261
      4  O         13.6830   -0.3380    8.5290 O.2    17  MET17      -0.2867
      5  CB        10.8570   -1.2650    9.0500 C.3    17  MET17       0.0387
      6  CG        11.1630   -2.6140    8.3960 C.3    17  MET17       0.0595
      7  SD         9.8900   -3.1510    7.2760 S.3    17  MET17      -0.1393
      8  CE         8.3270   -3.2230    8.1230 C.3    17  MET17       0.0692
      9  N         15.4970   -3.2180    7.1880 N.3    19  PHE19      -0.1241
     10  CA        15.1350   -4.1330    6.0990 C.3    19  PHE19       0.1605
     11  C         16.3710   -4.5830    5.3170 C.2    19  PHE19       0.2264
     12  O         17.1870   -3.7670    4.8820 O.2    19  PHE19      -0.2867
     13  CB        14.1690   -3.3500    5.2120 C.3    19  PHE19       0.0534
     14  CG        13.4030   -4.1670    4.1870 C.ar   19  PHE19      -0.0203
     15  CD1       12.3220   -4.9640    4.5790 C.ar   19  PHE19      -0.0042
     16  CD2       13.7790   -4.0900    2.8490 C.ar   19  PHE19      -0.0042
     17  CE1       11.6140   -5.6910    3.6160 C.ar   19  PHE19      -0.0003
     18  CE2       13.0720   -4.8130    1.8850 C.ar   19  PHE19      -0.0003
     19  CZ        11.9880   -5.6140    2.2680 C.ar   19  PHE19      -0.0000
     20  N         18.4010   -5.8670    2.2060 N.3    21  LYS21      -0.1245
     21  CA        18.3250   -5.6160    0.7570 C.3    21  LYS21       0.1561
     22  C         18.0520   -6.9340   -0.0030 C.2    21  LYS21       0.2260
     23  O         17.1280   -7.0280   -0.8200 O.2    21  LYS21      -0.2867
     24  CB        19.6270   -4.9920    0.2540 C.3    21  LYS21       0.0271
     25  CG        19.7210   -3.4720    0.4720 C.3    21  LYS21       0.0035
     26  CD        20.6830   -2.8060   -0.5210 C.3    21  LYS21       0.0206
     27  CE        21.3780   -1.5620    0.0340 C.3    21  LYS21       0.1093
     28  NZ        22.7520   -1.3930   -0.4670 N.3    21  LYS21      -0.1314
     29  N         15.1540   -9.8530    0.4020 N.3    24  GLN24      -0.1231
     30  CA        14.3890   -8.7350    0.9820 C.3    24  GLN24       0.1698
     31  C         13.6030   -9.2480    2.1830 C.2    24  GLN24       0.2592
     32  O         12.6710  -10.0420    2.0420 O.2    24  GLN24      -0.2718
     33  CB        13.4300   -8.1420   -0.0700 C.3    24  GLN24       0.0381
     34  CG        14.0580   -6.9730   -0.8380 C.3    24  GLN24       0.0905
     35  CD        13.0760   -6.1720   -1.7060 C.2    24  GLN24       0.2608
     36  OE1       13.4960   -5.5440   -2.6820 O.2    24  GLN24      -0.2717
     37  NE2       11.7910   -6.1460   -1.4120 N.am   24  GLN24      -0.0878
     38  N         13.9930   -8.8110    3.3720 N.am   25  GLU25      -0.1966
     39  CA        13.2870   -9.2510    4.5880 C.3    25  GLU25       0.1733
     40  C         13.4680   -8.2730    5.7550 C.2    25  GLU25       0.2616
     41  O         14.4220   -7.4870    5.7980 O.2    25  GLU25      -0.2715
     42  CB        13.7680  -10.6440    5.0220 C.3    25  GLU25       0.0429
     43  CG        15.2660  -10.7270    5.3130 C.3    25  GLU25       0.1163
     44  CD        15.7060  -12.1330    5.7380 C.2    25  GLU25       0.3649
     45  OE1       14.8950  -13.1300    5.6170 O.co2  25  GLU25      -0.2457
     46  OE2       16.8870  -12.3190    6.2180 O.co2  25  GLU25      -0.2457
     47  N         12.5050   -8.3700    6.6560 N.am   26  LEU26      -0.1977
     48  CA        12.4470   -7.5780    7.8950 C.3    26  LEU26       0.1596
     49  C         13.4800   -8.1500    8.8590 C.2    26  LEU26       0.2287
     50  O         13.4590   -9.3420    9.1840 O.2    26  LEU26      -0.2864
     51  CB        11.0300   -7.7110    8.4720 C.3    26  LEU26       0.0297
     52  CG        10.6690   -6.7370    9.6060 C.3    26  LEU26       0.0022
     53  CD1       10.2050   -7.4630   10.8750 C.3    26  LEU26       0.0001
     54  CD2       11.8150   -5.8290   10.0380 C.3    26  LEU26       0.0001
     55  N         18.7500   -1.2790    4.5380 N.3    60  LEU60      -0.1245
     56  CA        17.9470   -0.0760    4.2860 C.3    60  LEU60       0.1561
     57  C         17.1060    0.1860    5.5260 C.2    60  LEU60       0.2260
     58  O         16.8100   -0.7320    6.3050 O.2    60  LEU60      -0.2867
     59  CB        16.9210   -0.2790    3.1630 C.3    60  LEU60       0.0270
     60  CG        17.5130   -0.4850    1.7680 C.3    60  LEU60       0.0019
     61  CD1       16.4460   -0.8580    0.7270 C.3    60  LEU60       0.0001
     62  CD2       18.2020    0.7620    1.2160 C.3    60  LEU60       0.0001
     63  N         13.4600    1.8710    6.6440 N.3    62  ARG62      -0.1245
     64  CA        12.1320    2.3010    6.1470 C.3    62  ARG62       0.1563
     65  C         11.4050    3.0120    7.2940 C.2    62  ARG62       0.2260
     66  O         11.1450    2.4210    8.3500 O.2    62  ARG62      -0.2867
     67  CB        11.3590    1.0880    5.6320 C.3    62  ARG62       0.0307
     68  CG        12.1480    0.3000    4.5810 C.3    62  ARG62       0.0489
     69  CD        11.3950   -0.9190    4.0620 C.3    62  ARG62       0.2205
     70  NE        10.1500   -0.5700    3.3700 N.pl3  62  ARG62      -0.0865
     71  CZ         9.3970   -1.4560    2.7150 C.cat  62  ARG62       0.5346
     72  NH1        9.7550   -2.7470    2.6560 N.pl3  62  ARG62       0.1354
     73  NH2        8.2600   -1.1440    2.0850 N.pl3  62  ARG62       0.1354
     74  N          3.1160   -3.8930    7.2560 N.3    68  ARG68      -0.1231
     75  CA         4.3800   -4.6310    7.3600 C.3    68  ARG68       0.1694
     76  C          5.0040   -4.9080    5.9840 C.2    68  ARG68       0.2593
     77  O          6.1930   -4.6670    5.7600 O.2    68  ARG68      -0.2718
     78  CB         4.1740   -5.9850    8.0430 C.3    68  ARG68       0.0321
     79  CG         5.4780   -6.7800    8.2160 C.3    68  ARG68       0.0489
     80  CD         5.2690   -8.0970    8.9670 C.3    68  ARG68       0.2205
     81  NE         4.1830   -8.9040    8.4000 N.pl3  68  ARG68      -0.0865
     82  CZ         4.3710   -9.9140    7.5440 C.cat  68  ARG68       0.5346
     83  NH1        5.6030  -10.2640    7.1520 N.pl3  68  ARG68       0.1354
     84  NH2        3.3750  -10.6390    7.0180 N.pl3  68  ARG68       0.1354
     85  N          4.2070   -5.4010    5.0460 N.am   69  THR69      -0.1939
     86  CA         4.7720   -5.8560    3.7560 C.3    69  THR69       0.2028
     87  C          4.5910   -4.9010    2.5570 C.2    69  THR69       0.2642
     88  O          5.3490   -4.9560    1.5810 O.2    69  THR69      -0.2714
     89  CB         4.1550   -7.1910    3.3470 C.3    69  THR69       0.1808
     90  OG1        2.7540   -7.0540    3.1790 O.3    69  THR69      -0.2208
     91  CG2        4.3940   -8.2900    4.3860 C.3    69  THR69       0.0379
     92  N          3.6170   -4.0270    2.5900 N.am   70  ARG70      -0.1963
     93  CA         3.3560   -3.1480    1.4270 C.3    70  ARG70       0.1729
     94  C          4.3470   -1.9820    1.3410 C.2    70  ARG70       0.2616
     95  O          4.8820   -1.5160    2.3550 O.2    70  ARG70      -0.2715
     96  CB         1.9590   -2.5340    1.5380 C.3    70  ARG70       0.0348
     97  CG         0.9280   -3.5550    1.0030 C.3    70  ARG70       0.0492
     98  CD        -0.4760   -2.9800    1.2150 C.3    70  ARG70       0.2205
     99  NE        -0.6200   -1.7360    0.4150 N.pl3  70  ARG70      -0.0865
    100  CZ        -0.6680   -0.5050    0.9860 C.cat  70  ARG70       0.5346
    101  NH1       -0.6730   -0.3380    2.2980 N.pl3  70  ARG70       0.1354
    102  NH2       -0.7760    0.4900    0.0610 N.pl3  70  ARG70       0.1354
    103  N          4.5830   -1.5430    0.1060 N.am   71  TYR71      -0.1974
    104  CA         5.3790   -0.3310   -0.1420 C.3    71  TYR71       0.1639
    105  C          4.3930    0.8310   -0.0990 C.2    71  TYR71       0.2290
    106  O          3.5860    1.0230   -1.0180 O.2    71  TYR71      -0.2864
    107  CB         6.0810   -0.3520   -1.5030 C.3    71  TYR71       0.0560
    108  CG         6.7290    1.0050   -1.7960 C.ar   71  TYR71      -0.0198
    109  CD1        7.7640    1.4720   -0.9760 C.ar   71  TYR71      -0.0009
    110  CD2        6.2790    1.7870   -2.8660 C.ar   71  TYR71      -0.0009
    111  CE1        8.3390    2.7240   -1.2170 C.ar   71  TYR71       0.0417
    112  CE2        6.8520    3.0420   -3.1050 C.ar   71  TYR71       0.0417
    113  CZ         7.8800    3.5110   -2.2790 C.ar   71  TYR71       0.1957
    114  OH         8.4310    4.7330   -2.5070 O.3    71  TYR71      -0.2866
    115  N         12.4060    5.6740    2.3960 N.3    78  ILE78      -0.1231
    116  CA        13.4790    4.6790    2.4920 C.3    78  ILE78       0.1692
    117  C         14.8140    5.4190    2.4890 C.2    78  ILE78       0.2593
    118  O         15.0270    6.3570    1.7130 O.2    78  ILE78      -0.2718
    119  CB        13.3440    3.6780    1.3490 C.3    78  ILE78       0.0266
    120  CG1       11.9540    3.0320    1.3270 C.3    78  ILE78       0.0019
    121  CG2       14.3570    2.5330    1.4380 C.3    78  ILE78       0.0020
    122  CD1       11.8680    1.7950    0.4390 C.3    78  ILE78       0.0001
    123  N         15.6940    4.9970    3.3780 N.am   79  SER79      -0.1938
    124  CA        17.0030    5.6480    3.5250 C.3    79  SER79       0.2055
    125  C         18.1410    4.6310    3.5740 C.2    79  SER79       0.2642
    126  O         17.9930    3.5240    4.1090 O.2    79  SER79      -0.2714
    127  CB        17.0580    6.4470    4.8320 C.3    79  SER79       0.2130
    128  OG        16.1780    7.5590    4.7710 O.3    79  SER79      -0.2179
    129  N         19.2520    5.0570    3.0050 N.am   80  MET80      -0.1976
    130  CA        20.4940    4.2790    3.0010 C.3    80  MET80       0.1605
    131  C         21.3120    4.7080    4.2160 C.2    80  MET80       0.2287
    132  O         21.1210    5.8050    4.7580 O.2    80  MET80      -0.2864
    133  CB        21.2880    4.5610    1.7310 C.3    80  MET80       0.0413
    134  CG        20.8820    3.6500    0.5730 C.3    80  MET80       0.0598
    135  SD        21.6850    4.0650   -0.9580 S.3    80  MET80      -0.1393
    136  CE        20.9600    3.1360   -2.2910 C.3    80  MET80       0.0692
    137  N          2.5910  -13.4490   11.3830 N.3   150  GLN150     -0.1245
    138  CA         3.0660  -12.0630   11.4380 C.3   150  GLN150      0.1566
    139  C          1.9210  -11.1280   11.0760 C.2   150  GLN150      0.2260
    140  O          0.9180  -11.5970   10.5340 O.2   150  GLN150     -0.2867
    141  CB         4.2200  -11.8760   10.4510 C.3   150  GLN150      0.0367
    142  CG         5.4940  -12.5780   10.8830 C.3   150  GLN150      0.0905
    143  CD         6.5980  -12.4040    9.8700 C.2   150  GLN150      0.2608
    144  OE1        6.3320  -12.2400    8.6840 O.2   150  GLN150     -0.2717
    145  NE2        7.8440  -12.4350   10.3390 N.am  150  GLN150     -0.0878
@<TRIPOS>BOND
     1   112   110   ar
     2   112   113   ar
     3   110   108   ar
     4    36    35    2
     5   114   113    1
     6   136   135    1
     7   113   111   ar
     8   108   107    1
     9   108   109   ar
    10    35    37   am
    11    35    34    1
    12   107   104    1
    13   111   109   ar
    14   106   105    2
    15   135   134    1
    16    34    33    1
    17    23    22    2
    18    26    27    1
    19    26    25    1
    20    28    27    1
    21   104   105    1
    22   104   103    1
    23    33    30    1
    24    22    21    1
    25   102   100    1
    26   103    94   am
    27    24    25    1
    28    24    21    1
    29    29    30    1
    30    99   100    2
    31    99    98    1
    32   122   120    1
    33   134   133    1
    34    61    60    1
    35    21    20    1
    36    30    31    1
    37   100   101    1
    38    97    98    1
    39    97    96    1
    40    62    60    1
    41   120   119    1
    42    94    93    1
    43    94    95    2
    44   119   121    1
    45   119   116    1
    46    93    96    1
    47    93    92    1
    48    88    87    2
    49   118   117    2
    50   133   130    1
    51    60    59    1
    52    18    19   ar
    53    18    16   ar
    54    32    31    2
    55    73    71    1
    56    31    38   am
    57    19    17   ar
    58   115   116    1
    59   117   116    1
    60   117   123   am
    61    87    92   am
    62    87    86    1
    63    72    71    1
    64    71    70    2
    65    16    14   ar
    66   130   129    1
    67   130   131    1
    68   129   125   am
    69    59    56    1
    70    90    89    1
    71    89    86    1
    72    89    91    1
    73    70    69    1
    74    38    39    1
    75   123   124    1
    76   124   125    1
    77   124   127    1
    78   125   126    2
    79    17    15   ar
    80    86    85    1
    81    69    68    1
    82    14    15   ar
    83    14    13    1
    84   131   132    2
    85    56    55    1
    86    56    57    1
    87    68    67    1
    88    39    42    1
    89    39    40    1
    90   128   127    1
    91    12    11    2
    92    42    43    1
    93    85    76   am
    94    13    10    1
    95    43    44    1
    96    11    10    1
    97    57    58    2
    98    45    44   ar
    99    67    64    1
   100    44    46   ar
   101    40    41    2
   102    40    47   am
   103    77    76    2
   104    76    75    1
   105    10     9    1
   106    64    63    1
   107    64    65    1
   108    47    48    1
   109    84    82    1
   110    83    82    1
   111    74    75    1
   112     7     8    1
   113     7     6    1
   114    65    66    2
   115    75    78    1
   116    82    81    2
   117    48    51    1
   118    48    49    1
   119    78    79    1
   120    79    80    1
   121     6     5    1
   122    81    80    1
   123    51    52    1
   124     4     3    2
   125   144   143    2
   126    49    50    2
   127     5     2    1
   128     3     2    1
   129    52    54    1
   130    52    53    1
   131   143   145   am
   132   143   142    1
   133     2     1    1
   134   141   142    1
   135   141   138    1
   136   140   139    2
   137   139   138    1
   138   137   138    1
