@<TRIPOS>MOLECULE
tmp/1a3eB01.pdb
 182 181 0 0 0
SMALL
GASTEIGER

@<TRIPOS>ATOM
      1  N         22.5760   -6.4060   18.4790 N.3    43  HIS43      -0.1241
      2  CA        22.4190   -7.8070   18.0430 C.3    43  HIS43       0.1621
      3  C         21.6380   -7.9090   16.7200 C.2    43  HIS43       0.2264
      4  O         21.6080   -8.9640   16.0740 O.2    43  HIS43      -0.2867
      5  CB        21.7810   -8.6500   19.1530 C.3    43  HIS43       0.0745
      6  CG        20.2600   -8.6980   19.1250 C.ar   43  HIS43       0.0817
      7  ND1       19.4990   -7.9890   20.0430 N.ar   43  HIS43      -0.2268
      8  CD2       19.3900   -9.3580   18.3220 C.ar   43  HIS43       0.1154
      9  CE1       18.2290   -8.2230   19.7840 C.ar   43  HIS43       0.1986
     10  NE2       18.1450   -9.0370   18.7600 N.ar   43  HIS43      -0.2212
     11  N         25.9820  -10.5260   15.5600 N.3    47  TYR47      -0.1241
     12  CA        25.7750  -11.6760   16.4490 C.3    47  TYR47       0.1605
     13  C         26.4970  -12.8950   15.8470 C.2    47  TYR47       0.2264
     14  O         25.8940  -13.8040   15.2770 O.2    47  TYR47      -0.2867
     15  CB        24.2950  -11.9500   16.6680 C.3    47  TYR47       0.0534
     16  CG        24.0800  -12.8500   17.8810 C.ar   47  TYR47      -0.0201
     17  CD1       24.4800  -12.4230   19.1540 C.ar   47  TYR47      -0.0009
     18  CD2       23.4980  -14.1060   17.7150 C.ar   47  TYR47      -0.0009
     19  CE1       24.3120  -13.2670   20.2580 C.ar   47  TYR47       0.0417
     20  CE2       23.3350  -14.9530   18.8160 C.ar   47  TYR47       0.0417
     21  CZ        23.7450  -14.5340   20.0870 C.ar   47  TYR47       0.1957
     22  OH        23.5960  -15.3610   21.1550 O.3    47  TYR47      -0.2866
     23  N         25.4370  -16.7930   15.4060 N.3    50  TRP50      -0.1241
     24  CA        24.5550  -17.1250   14.2850 C.3    50  TRP50       0.1605
     25  C         25.1060  -16.6070   12.9470 C.2    50  TRP50       0.2264
     26  O         24.3840  -16.5380   11.9440 O.2    50  TRP50      -0.2867
     27  CB        23.1650  -16.4790   14.4680 C.3    50  TRP50       0.0550
     28  CG        22.4010  -17.0120   15.6900 C.ar   50  TRP50       0.0003
     29  CD1       22.7160  -18.0760   16.4440 C.ar   50  TRP50       0.0946
     30  CD2       21.2100  -16.4450   16.2240 C.ar   50  TRP50       0.0152
     31  NE1       21.7200  -18.1840   17.4670 N.ar   50  TRP50      -0.2442
     32  CE2       20.8460  -17.2160   17.3210 C.ar   50  TRP50       0.0810
     33  CE3       20.4190  -15.3460   15.8690 C.ar   50  TRP50       0.0012
     34  CZ2       19.7150  -16.9470   18.1040 C.ar   50  TRP50       0.0191
     35  CZ3       19.2820  -15.0840   16.6620 C.ar   50  TRP50       0.0001
     36  CH2       18.9490  -15.8480   17.7270 C.ar   50  TRP50       0.0015
     37  N         28.2670   -9.8040   23.2220 N.3    92  TRP92      -0.1241
     38  CA        27.5180  -10.8200   22.4780 C.3    92  TRP92       0.1605
     39  C         27.9270  -12.2340   22.8750 C.2    92  TRP92       0.2264
     40  O         27.2620  -13.2170   22.5290 O.2    92  TRP92      -0.2867
     41  CB        27.7280  -10.6940   20.9630 C.3    92  TRP92       0.0550
     42  CG        29.1980  -10.6240   20.5240 C.ar   92  TRP92       0.0003
     43  CD1       29.9220   -9.5180   20.3090 C.ar   92  TRP92       0.0946
     44  CD2       30.0340  -11.7460   20.2620 C.ar   92  TRP92       0.0152
     45  NE1       31.2290   -9.9380   19.9050 N.ar   92  TRP92      -0.2442
     46  CE2       31.2740  -11.2470   19.8840 C.ar   92  TRP92       0.0810
     47  CE3       29.8480  -13.1340   20.3150 C.ar   92  TRP92       0.0012
     48  CZ2       32.3610  -12.0630   19.5480 C.ar   92  TRP92       0.0191
     49  CZ3       30.9490  -13.9490   19.9760 C.ar   92  TRP92       0.0001
     50  CH2       32.1460  -13.4370   19.6110 C.ar   92  TRP92       0.0015
     51  N         28.1800  -13.4280   26.0010 N.3    94  GLU94      -0.1231
     52  CA        27.4810  -13.9390   27.1820 C.3    94  GLU94       0.1699
     53  C         25.9910  -13.5860   27.2620 C.2    94  GLU94       0.2592
     54  O         25.1200  -14.4400   27.0480 O.2    94  GLU94      -0.2718
     55  CB        28.1270  -13.3950   28.4510 C.3    94  GLU94       0.0402
     56  CG        27.6000  -14.0570   29.7230 C.3    94  GLU94       0.1161
     57  CD        28.0190  -13.3120   30.9890 C.2    94  GLU94       0.3649
     58  OE1       28.9730  -12.4450   30.9390 O.co2  94  GLU94      -0.2457
     59  OE2       27.4200  -13.5480   32.1030 O.co2  94  GLU94      -0.2457
     60  N         25.6960  -12.3290   27.5750 N.am   95  ASN95      -0.1960
     61  CA        24.3060  -11.9530   27.8960 C.3    95  ASN95       0.1819
     62  C         23.7440  -10.7120   27.1770 C.2    95  ASN95       0.2621
     63  O         22.7470  -10.1240   27.6250 O.2    95  ASN95      -0.2715
     64  CB        24.2230  -11.6340   29.3830 C.3    95  ASN95       0.1195
     65  CG        25.2330  -10.5630   29.8130 C.2    95  ASN95       0.2630
     66  OD1       25.9850  -10.0510   28.9820 O.2    95  ASN95      -0.2716
     67  ND2       25.2900  -10.1830   31.0750 N.am   95  ASN95      -0.0877
     68  N         24.3520  -10.3220   26.0840 N.am   96  LEU96      -0.1977
     69  CA        23.8840   -9.1600   25.2920 C.3    96  LEU96       0.1596
     70  C         23.9030   -7.8540   26.1170 C.2    96  LEU96       0.2287
     71  O         23.0630   -6.9590   25.9300 O.2    96  LEU96      -0.2864
     72  CB        22.4340   -9.3590   24.8150 C.3    96  LEU96       0.0297
     73  CG        22.2470  -10.5220   23.8260 C.3    96  LEU96       0.0022
     74  CD1       20.9570  -10.4040   23.0010 C.3    96  LEU96       0.0001
     75  CD2       23.3740  -10.6460   22.8010 C.3    96  LEU96       0.0001
     76  N         20.2860  -16.3630   33.0560 N.3   173  ILE173     -0.1245
     77  CA        21.2100  -15.3940   32.4360 C.3   173  ILE173      0.1561
     78  C         21.5590  -14.3030   33.4570 C.2   173  ILE173      0.2260
     79  O         20.7090  -13.8720   34.2480 O.2   173  ILE173     -0.2867
     80  CB        20.5560  -14.7270   31.2230 C.3   173  ILE173      0.0252
     81  CG1       20.1440  -15.7260   30.1400 C.3   173  ILE173      0.0019
     82  CG2       21.4710  -13.7160   30.5300 C.3   173  ILE173      0.0019
     83  CD1       21.3350  -16.2880   29.3600 C.3   173  ILE173      0.0001
     84  N          3.8400   -9.2570   25.2450 N.3   193  ASP193     -0.1225
     85  CA         5.2960   -9.3380   25.1350 C.3   193  ASP193      0.1805
     86  C          5.7320   -9.0150   23.7090 C.2   193  ASP193      0.2598
     87  O          4.9060   -8.9560   22.7860 O.2   193  ASP193     -0.2718
     88  CB         5.7250  -10.7840   25.4460 C.3   193  ASP193      0.1424
     89  CG         7.2030  -10.9490   25.8070 C.2   193  ASP193      0.3668
     90  OD1        7.9500   -9.9130   25.9640 O.co2 193  ASP193     -0.2456
     91  OD2        7.6990  -12.1330   25.9640 O.co2 193  ASP193     -0.2456
     92  N          7.0200   -8.7970   23.5830 N.am  194  ALA194     -0.1966
     93  CA         7.6550   -8.6410   22.2800 C.3   194  ALA194      0.1728
     94  C          7.9760  -10.0590   21.8340 C.2   194  ALA194      0.2616
     95  O          7.9330  -10.9950   22.6420 O.2   194  ALA194     -0.2715
     96  CB         8.9380   -7.8120   22.4060 C.3   194  ALA194      0.0334
     97  N          8.2750  -10.2250   20.5790 N.am  195  CYS195     -0.1954
     98  CA         8.6450  -11.5460   20.0540 C.3   195  CYS195      0.1843
     99  C          9.6540  -11.3390   18.9240 C.2   195  CYS195      0.2625
    100  O         10.0220  -10.2000   18.5990 O.2   195  CYS195     -0.2714
    101  CB         7.4000  -12.2930   19.5560 C.3   195  CYS195      0.0997
    102  SG         7.6070  -14.1010   19.5570 S.3   195  CYS195     -0.0797
    103  N         10.0780  -12.4440   18.3650 N.am  196  GLU196     -0.1963
    104  CA        11.0560  -12.4660   17.2700 C.3   196  GLU196      0.1733
    105  C         10.6490  -11.4880   16.1620 C.2   196  GLU196      0.2616
    106  O          9.5510  -11.5750   15.6060 O.2   196  GLU196     -0.2715
    107  CB        11.1050  -13.8720   16.6770 C.3   196  GLU196      0.0429
    108  CG        11.8230  -13.9270   15.3360 C.3   196  GLU196      0.1163
    109  CD        13.3340  -13.8070   15.4860 C.2   196  GLU196      0.3649
    110  OE1       13.8750  -13.9450   16.6490 O.co2 196  GLU196     -0.2457
    111  OE2       14.0650  -13.5690   14.4540 O.co2 196  GLU196     -0.2457
    112  N         11.5470  -10.5680   15.8510 N.am  197  GLY197     -0.1955
    113  CA        11.3050   -9.5730   14.7900 C.3   197  GLY197      0.1869
    114  C         11.0430   -8.1830   15.3840 C.2   197  GLY197      0.2309
    115  O         11.0490   -7.1710   14.6700 O.2   197  GLY197     -0.2863
    116  N         12.8560   -7.0790   17.9990 N.3   199  SER199     -0.1217
    117  CA        14.1600   -6.6290   18.5080 C.3   199  SER199      0.1889
    118  C         14.5590   -5.2990   17.8800 C.2   199  SER199      0.2288
    119  O         14.2940   -5.0520   16.6950 O.2   199  SER199     -0.2866
    120  CB        15.2590   -7.6230   18.1410 C.3   199  SER199      0.2089
    121  OG        15.2020   -8.7530   18.9890 O.3   199  SER199     -0.2183
    122  N         14.0960   -3.1470   22.6980 N.3   219  VAL219     -0.1231
    123  CA        13.8190   -4.5970   22.7950 C.3   219  VAL219      0.1692
    124  C         15.1330   -5.3520   22.5570 C.2   219  VAL219      0.2593
    125  O         15.7550   -5.2280   21.4940 O.2   219  VAL219     -0.2718
    126  CB        12.7850   -5.0060   21.7520 C.3   219  VAL219      0.0266
    127  CG1       12.4060   -6.4860   21.8470 C.3   219  VAL219      0.0020
    128  CG2       11.4800   -4.2200   21.8750 C.3   219  VAL219      0.0020
    129  N         15.5400   -6.1350   23.5490 N.am  220  SER220     -0.1938
    130  CA        16.8420   -6.8280   23.4910 C.3   220  SER220      0.2055
    131  C         16.7230   -8.3590   23.3980 C.2   220  SER220      0.2643
    132  O         17.1170   -8.9740   22.4000 O.2   220  SER220     -0.2714
    133  CB        17.6770   -6.4670   24.7130 C.3   220  SER220      0.2130
    134  OG        18.9990   -6.9610   24.5610 O.3   220  SER220     -0.2179
    135  N         16.2060   -8.9990   24.4330 N.am  221  TRP221     -0.1959
    136  CA        16.0850  -10.4720   24.4100 C.3   221  TRP221      0.1771
    137  C         14.9650  -10.9660   25.3170 C.2   221  TRP221      0.2620
    138  O         14.4050  -10.2100   26.1140 O.2   221  TRP221     -0.2715
    139  CB        17.4060  -11.1360   24.8490 C.3   221  TRP221      0.0590
    140  CG        17.9310  -10.7010   26.2350 C.ar  221  TRP221      0.0006
    141  CD1       18.6540   -9.6060   26.5240 C.ar  221  TRP221      0.0946
    142  CD2       17.7400  -11.4160   27.4530 C.ar  221  TRP221      0.0152
    143  NE1       18.9320   -9.6350   27.9310 N.ar  221  TRP221     -0.2442
    144  CE2       18.3910  -10.7060   28.4560 C.ar  221  TRP221      0.0810
    145  CE3       17.0730  -12.6020   27.7830 C.ar  221  TRP221      0.0012
    146  CZ2       18.4260  -11.1240   29.7940 C.ar  221  TRP221      0.0191
    147  CZ3       17.1070  -13.0110   29.1340 C.ar  221  TRP221      0.0001
    148  CH2       17.7530  -12.3060   30.0900 C.ar  221  TRP221      0.0015
    149  N         14.6780  -12.2390   25.1520 N.am  222  GLY222     -0.1940
    150  CA        13.6480  -12.9340   25.9300 C.3   222  GLY222      0.2014
    151  C         13.7440  -14.4220   25.6370 C.2   222  GLY222      0.2639
    152  O         14.2240  -14.8350   24.5760 O.2   222  GLY222     -0.2714
    153  N         13.2980  -15.2110   26.5820 N.am  223  GLU223     -0.1963
    154  CA        13.3190  -16.6660   26.4320 C.3   223  GLU223      0.1733
    155  C         11.8960  -17.1110   26.1250 C.2   223  GLU223      0.2617
    156  O         11.1110  -17.4180   27.0290 O.2   223  GLU223     -0.2715
    157  CB        13.8360  -17.2990   27.7130 C.3   223  GLU223      0.0429
    158  CG        15.3220  -17.0280   27.9420 C.3   223  GLU223      0.1163
    159  CD        15.7900  -17.4240   29.3390 C.2   223  GLU223      0.3649
    160  OE1       15.2280  -16.9040   30.3760 O.co2 223  GLU223     -0.2457
    161  OE2       16.7440  -18.2790   29.4770 O.co2 223  GLU223     -0.2457
    162  N         11.6040  -17.1240   24.8450 N.am  224  GLY224     -0.1940
    163  CA        10.2580  -17.4190   24.3600 C.3   224  GLY224      0.2014
    164  C          9.5090  -16.0930   24.3150 C.2   224  GLY224      0.2639
    165  O         10.0940  -15.0240   24.5440 O.2   224  GLY224     -0.2714
    166  N          8.2370  -16.1680   24.0210 N.am  225  CYS225     -0.1967
    167  CA         7.3990  -14.9700   23.9420 C.3   225  CYS225      0.1712
    168  C          6.1130  -15.1700   24.7310 C.2   225  CYS225      0.2296
    169  O          5.3720  -16.1350   24.5050 O.2   225  CYS225     -0.2864
    170  CB         7.0210  -14.6730   22.4890 C.3   225  CYS225      0.0983
    171  SG         8.4390  -14.6890   21.3510 S.3   225  CYS225     -0.0798
    172  N          5.6100  -16.0400   27.7440 N.3   227  ARG227     -0.1245
    173  CA         5.5910  -17.2410   28.5850 C.3   227  ARG227      0.1563
    174  C          5.3410  -16.8150   30.0260 C.2   227  ARG227      0.2260
    175  O          5.8450  -15.7820   30.4800 O.2   227  ARG227     -0.2867
    176  CB         6.9360  -17.9600   28.5200 C.3   227  ARG227      0.0307
    177  CG         7.1440  -18.7270   27.2200 C.3   227  ARG227      0.0489
    178  CD         8.2910  -19.7320   27.2970 C.3   227  ARG227      0.2205
    179  NE         8.8470  -20.0550   25.9790 N.pl3 227  ARG227     -0.0865
    180  CZ        10.0270  -20.6520   25.7870 C.cat 227  ARG227      0.5346
    181  NH1       10.8000  -21.0050   26.8220 N.pl3 227  ARG227      0.1354
    182  NH2       10.5280  -20.9420   24.5780 N.pl3 227  ARG227      0.1354
@<TRIPOS>BOND
     1    26    25    2
     2    25    24    1
     3    24    27    1
     4    24    23    1
     5   111   109   ar
     6    27    28    1
     7   115   114    2
     8   113   114    1
     9   113   112    1
    10    14    13    2
    11   108   109    1
    12   108   107    1
    13   109   110   ar
    14    11    12    1
    15   106   105    2
    16    28    30   ar
    17    28    29   ar
    18    13    12    1
    19   112   105   am
    20    33    30   ar
    21    33    35   ar
    22     4     3    2
    23   105   104    1
    24    30    32   ar
    25    29    31   ar
    26    12    15    1
    27    35    36   ar
    28    15    16    1
    29   107   104    1
    30   119   118    2
    31     3     2    1
    32   104   103    1
    33    32    31   ar
    34    32    34   ar
    35    18    16   ar
    36    18    20   ar
    37    36    34   ar
    38   118   117    1
    39    16    17   ar
    40   116   117    1
    41     2     1    1
    42     2     5    1
    43   120   117    1
    44   120   121    1
    45     8    10   ar
    46     8     6   ar
    47   103    99   am
    48   100    99    2
    49    10     9   ar
    50    20    21   ar
    51    99    98    1
    52     6     5    1
    53     6     7   ar
    54    17    19   ar
    55    48    50   ar
    56    48    46   ar
    57   101   102    1
    58   101    98    1
    59   102   171    1
    60    50    49   ar
    61     9     7   ar
    62    46    45   ar
    63    46    44   ar
    64    45    43   ar
    65    49    47   ar
    66    98    97    1
    67    21    19   ar
    68    21    22    1
    69    44    47   ar
    70    44    42   ar
    71    43    42   ar
    72    42    41    1
    73    97    94   am
    74    41    38    1
    75   171   170    1
    76   125   124    2
    77   126   127    1
    78   126   128    1
    79   126   123    1
    80    94    93    1
    81    94    95    2
    82    93    96    1
    83    93    92    1
    84   132   131    2
    85    38    39    1
    86    38    37    1
    87   170   167    1
    88    40    39    2
    89   124   123    1
    90   124   129   am
    91   122   123    1
    92    87    86    2
    93    75    73    1
    94    74    73    1
    95   131   130    1
    96   131   135   am
    97   130   129    1
    98   130   133    1
    99    92    86   am
   100    86    85    1
   101    73    72    1
   102   167   166    1
   103   167   168    1
   104   166   164   am
   105   164   163    1
   106   164   165    2
   107   163   162    1
   108   136   135    1
   109   136   139    1
   110   136   137    1
   111   169   168    2
   112   134   133    1
   113   152   151    2
   114   182   180    1
   115    72    69    1
   116   162   155   am
   117   139   140    1
   118    85    84    1
   119    85    88    1
   120   149   137   am
   121   149   150    1
   122    69    68    1
   123    69    70    1
   124   137   138    2
   125    88    89    1
   126   151   150    1
   127   151   153   am
   128   180   179    2
   129   180   181    1
   130    89    90   ar
   131    89    91   ar
   132    71    70    2
   133   179   178    1
   134    51    52    1
   135    68    62   am
   136   155   154    1
   137   155   156    2
   138   140   141   ar
   139   140   142   ar
   140   154   153    1
   141   154   157    1
   142   141   143   ar
   143    54    53    2
   144    62    63    2
   145    62    61    1
   146    52    53    1
   147    52    55    1
   148   177   178    1
   149   177   176    1
   150    53    60   am
   151   142   145   ar
   152   142   144   ar
   153    60    61    1
   154   157   158    1
   155   172   173    1
   156   145   147   ar
   157    61    64    1
   158   143   144   ar
   159   158   159    1
   160    55    56    1
   161   144   146   ar
   162   176   173    1
   163   173   174    1
   164    66    65    2
   165   147   148   ar
   166   159   161   ar
   167   159   160   ar
   168    83    81    1
   169    64    65    1
   170    56    57    1
   171   146   148   ar
   172    65    67   am
   173   174   175    2
   174    81    80    1
   175    82    80    1
   176    58    57   ar
   177    57    59   ar
   178    80    77    1
   179    77    76    1
   180    77    78    1
   181    78    79    2
