@<TRIPOS>MOLECULE
tmp/1a3kA00.pdb
 98 91 0 0 0
SMALL
GASTEIGER

@<TRIPOS>ATOM
      1  N          6.5080  -12.1710   -7.8400 N.3    31  ARG31      -0.1245
      2  CA         6.0830  -10.8340   -7.4220 C.3    31  ARG31       0.1563
      3  C          7.1790   -9.7960   -7.4530 C.2    31  ARG31       0.2260
      4  O          8.3720  -10.1240   -7.4750 O.2    31  ARG31      -0.2867
      5  CB         5.5390  -10.8780   -6.0010 C.3    31  ARG31       0.0307
      6  CG         6.5460  -11.4460   -5.0090 C.3    31  ARG31       0.0489
      7  CD         6.1450  -11.1720   -3.5740 C.3    31  ARG31       0.2205
      8  NE         6.8590  -10.0210   -3.0260 N.pl3  31  ARG31      -0.0865
      9  CZ         6.2880   -9.0000   -2.3920 C.cat  31  ARG31       0.5346
     10  NH1        4.9810   -8.9560   -2.2150 N.pl3  31  ARG31       0.1354
     11  NH2        7.0320   -8.0160   -1.9200 N.pl3  31  ARG31       0.1354
     12  N          2.0690    1.0380   -1.8180 N.3    45  HIS45      -0.1241
     13  CA         2.5960   -0.2980   -2.0480 C.3    45  HIS45       0.1621
     14  C          2.1510   -0.6100   -3.4760 C.2    45  HIS45       0.2264
     15  O          0.9610   -0.6040   -3.7550 O.2    45  HIS45      -0.2867
     16  CB         1.9360   -1.2500   -1.0320 C.3    45  HIS45       0.0745
     17  CG         2.1560   -2.7150   -1.2950 C.ar   45  HIS45       0.0817
     18  ND1        3.3600   -3.3480   -1.0740 N.ar   45  HIS45      -0.2268
     19  CD2        1.2960   -3.6820   -1.6920 C.ar   45  HIS45       0.1154
     20  CE1        3.2320   -4.6410   -1.3150 C.ar   45  HIS45       0.1986
     21  NE2        1.9890   -4.8680   -1.6920 N.ar   45  HIS45      -0.2212
     22  N          2.3510   -3.5100   -6.1830 N.3    47  ASN47      -0.1240
     23  CA         2.6690   -4.9320   -6.1610 C.3    47  ASN47       0.1653
     24  C          2.2170   -5.8350   -7.2980 C.2    47  ASN47       0.2266
     25  O          1.1480   -6.4570   -7.2360 O.2    47  ASN47      -0.2867
     26  CB         2.1710   -5.4560   -4.8000 C.3    47  ASN47       0.1155
     27  CG         2.3450   -6.9580   -4.6000 C.2    47  ASN47       0.2627
     28  OD1        1.5020   -7.5740   -3.9590 O.2    47  ASN47      -0.2716
     29  ND2        3.4660   -7.5210   -5.0300 N.am   47  ASN47      -0.0877
     30  N          1.7100   -8.9910   -9.2400 N.3    49  ARG49      -0.1245
     31  CA         1.6930  -10.4060   -8.8500 C.3    49  ARG49       0.1563
     32  C          1.5360  -11.2370  -10.1360 C.2    49  ARG49       0.2260
     33  O          0.5380  -11.1120  -10.8560 O.2    49  ARG49      -0.2867
     34  CB         0.5280  -10.6940   -7.8950 C.3    49  ARG49       0.0307
     35  CG         0.5680   -9.8660   -6.6250 C.3    49  ARG49       0.0489
     36  CD        -0.6250  -10.1550   -5.7420 C.3    49  ARG49       0.2205
     37  NE        -0.6030   -9.3330   -4.5380 N.pl3  49  ARG49      -0.0865
     38  CZ        -1.5100   -9.3800   -3.5670 C.cat  49  ARG49       0.5346
     39  NH1       -2.5350  -10.2140   -3.6330 N.pl3  49  ARG49       0.1354
     40  NH2       -1.3920   -8.5720   -2.5280 N.pl3  49  ARG49       0.1354
     41  N         -1.6840  -14.9160   -9.3680 N.3    52  GLU52      -0.1245
     42  CA        -2.6740  -14.8570   -8.3170 C.3    52  GLU52       0.1567
     43  C         -3.8860  -15.5610   -8.8990 C.2    52  GLU52       0.2260
     44  O         -4.6220  -14.9800   -9.7070 O.2    52  GLU52      -0.2867
     45  CB        -3.0330  -13.4350   -7.9510 C.3    52  GLU52       0.0388
     46  CG        -3.6780  -13.4120   -6.6050 C.3    52  GLU52       0.1160
     47  CD        -4.4680  -12.1770   -6.3810 C.2    52  GLU52       0.3649
     48  OE1       -5.2480  -11.8090   -7.2780 O.co2  52  GLU52      -0.2457
     49  OE2       -4.3230  -11.5730   -5.3100 O.co2  52  GLU52      -0.2457
     50  N         -1.4980   -5.0440   -7.6360 N.3    59  VAL59      -0.1245
     51  CA        -2.2020   -4.6300   -6.4380 C.3    59  VAL59       0.1561
     52  C         -1.5310   -3.3970   -5.8440 C.2    59  VAL59       0.2260
     53  O         -0.3060   -3.3670   -5.6850 O.2    59  VAL59      -0.2867
     54  CB        -2.1960   -5.7700   -5.3870 C.3    59  VAL59       0.0252
     55  CG1       -2.9150   -5.3320   -4.1030 C.3    59  VAL59       0.0019
     56  CG2       -2.8410   -7.0190   -5.9760 C.3    59  VAL59       0.0019
     57  N         -1.7790   -0.5560   -2.5720 N.3    61  ASN61      -0.1240
     58  CA        -2.3870   -0.3260   -1.2630 C.3    61  ASN61       0.1653
     59  C         -1.5290    0.5280   -0.3280 C.2    61  ASN61       0.2266
     60  O         -0.4040    0.9030   -0.6590 O.2    61  ASN61      -0.2867
     61  CB        -2.7090   -1.6710   -0.5980 C.3    61  ASN61       0.1155
     62  CG        -3.9100   -1.6010    0.3650 C.2    61  ASN61       0.2627
     63  OD1       -4.4600   -0.5310    0.6410 O.2    61  ASN61      -0.2716
     64  ND2       -4.3050   -2.7650    0.8870 N.am   61  ASN61      -0.0877
     65  N         -3.3680   -3.1270    6.3880 N.3    68  TRP68      -0.1241
     66  CA        -3.4880   -2.8360    4.9630 C.3    68  TRP68       0.1605
     67  C         -4.8690   -2.2190    4.7670 C.2    68  TRP68       0.2264
     68  O         -5.7870   -2.5030    5.5440 O.2    68  TRP68      -0.2867
     69  CB        -3.3510   -4.1190    4.1430 C.3    68  TRP68       0.0550
     70  CG        -1.9400   -4.5490    4.0270 C.ar   68  TRP68       0.0003
     71  CD1       -1.3490   -5.6030    4.6580 C.ar   68  TRP68       0.0946
     72  CD2       -0.9100   -3.9050    3.2720 C.ar   68  TRP68       0.0152
     73  NE1       -0.0130   -5.6520    4.3470 N.ar   68  TRP68      -0.2442
     74  CE2        0.2880   -4.6150    3.4950 C.ar   68  TRP68       0.0810
     75  CE3       -0.8760   -2.7860    2.4220 C.ar   68  TRP68       0.0012
     76  CZ2        1.5060   -4.2530    2.9150 C.ar   68  TRP68       0.0191
     77  CZ3        0.3360   -2.4260    1.8430 C.ar   68  TRP68       0.0001
     78  CH2        1.5060   -3.1590    2.0900 C.ar   68  TRP68       0.0015
     79  N         -7.6520   -2.2740   -1.2330 N.3    71  GLU71      -0.1245
     80  CA        -6.8070   -2.5640   -2.3860 C.3    71  GLU71       0.1567
     81  C         -7.3540   -1.9600   -3.6570 C.2    71  GLU71       0.2260
     82  O         -8.5730   -1.8690   -3.8200 O.2    71  GLU71      -0.2867
     83  CB        -6.6740   -4.0830   -2.6000 C.3    71  GLU71       0.0388
     84  CG        -5.7520   -4.8000   -1.6250 C.3    71  GLU71       0.1160
     85  CD        -5.6450   -6.3040   -1.8670 C.2    71  GLU71       0.3649
     86  OE1       -6.3360   -6.8380   -2.7560 O.co2  71  GLU71      -0.2457
     87  OE2       -4.8730   -6.9580   -1.1420 O.co2  71  GLU71      -0.2457
     88  N         -6.8400   -2.6280   -7.6670 N.3    73  ARG73      -0.1245
     89  CA        -6.2380   -3.6070   -8.5840 C.3    73  ARG73       0.1563
     90  C         -6.2810   -3.2100  -10.0580 C.2    73  ARG73       0.2260
     91  O         -7.2480   -2.6150  -10.5260 O.2    73  ARG73      -0.2867
     92  CB        -6.8870   -4.9760   -8.3850 C.3    73  ARG73       0.0307
     93  CG        -6.6790   -5.5140   -6.9850 C.3    73  ARG73       0.0489
     94  CD        -7.4030   -6.8270   -6.7580 C.3    73  ARG73       0.2205
     95  NE        -6.9030   -7.5100   -5.5700 N.pl3  73  ARG73      -0.0865
     96  CZ        -6.2490   -8.6640   -5.5900 C.cat  73  ARG73       0.5346
     97  NH1       -6.0280   -9.2780   -6.7440 N.pl3  73  ARG73       0.1354
     98  NH2       -5.7630   -9.1700   -4.4610 N.pl3  73  ARG73       0.1354
@<TRIPOS>BOND
     1    33    32    2
     2    91    90    2
     3    32    31    1
     4    90    89    1
     5    44    43    2
     6    41    42    1
     7    30    31    1
     8    43    42    1
     9    31    34    1
    10    89    92    1
    11    89    88    1
    12    92    93    1
    13    42    45    1
    14    45    46    1
    15    34    35    1
    16     1     2    1
    17    50    51    1
    18     4     3    2
    19     3     2    1
    20     2     5    1
    21    24    25    2
    22    24    23    1
    23    48    47   ar
    24    93    94    1
    25    94    95    1
    26    97    96    1
    27    35    36    1
    28    46    47    1
    29    51    52    1
    30    51    54    1
    31    47    49   ar
    32    22    23    1
    33    23    26    1
    34     5     6    1
    35    56    54    1
    36    52    53    2
    37    36    37    1
    38    96    95    2
    39    96    98    1
    40    54    55    1
    41    29    27   am
    42     6     7    1
    43    26    27    1
    44    27    28    2
    45    37    38    2
    46    82    81    2
    47    15    14    2
    48    81    80    1
    49    39    38    1
    50     7     8    1
    51    38    40    1
    52    14    13    1
    53     8     9    2
    54    86    85   ar
    55    83    80    1
    56    83    84    1
    57    57    58    1
    58     9    10    1
    59     9    11    1
    60    80    79    1
    61    13    12    1
    62    13    16    1
    63    85    84    1
    64    85    87   ar
    65    19    21   ar
    66    19    17   ar
    67    21    20   ar
    68    20    18   ar
    69    17    18   ar
    70    17    16    1
    71    58    61    1
    72    58    59    1
    73    60    59    2
    74    61    62    1
    75    62    63    2
    76    62    64   am
    77    77    78   ar
    78    77    75   ar
    79    78    76   ar
    80    75    72   ar
    81    76    74   ar
    82    72    74   ar
    83    72    70   ar
    84    74    73   ar
    85    70    69    1
    86    70    71   ar
    87    69    66    1
    88    73    71   ar
    89    67    66    1
    90    67    68    2
    91    66    65    1
