@<TRIPOS>MOLECULE
tmp/1a3vA00.pdb
 162 155 0 0 0
SMALL
GASTEIGER

@<TRIPOS>ATOM
      1  N         12.8810   16.5220   13.0150 N.3    13  ASP13      -0.1239
      2  CA        11.8670   15.7440   12.3350 C.3    13  ASP13       0.1674
      3  C         10.7380   16.7150   12.0120 C.2    13  ASP13       0.2266
      4  O         10.8950   17.9190   12.2350 O.2    13  ASP13      -0.2867
      5  CB        11.4030   14.5600   13.1930 C.3    13  ASP13       0.1410
      6  CG        10.6980   14.9870   14.4720 C.2    13  ASP13       0.3668
      7  OD1       10.7990   16.1590   14.8800 O.co2  13  ASP13      -0.2456
      8  OD2       10.0430   14.1370   15.0940 O.co2  13  ASP13      -0.2456
      9  N          8.1680   17.8510   13.5080 N.3    15  ASP15      -0.1225
     10  CA         7.7110   18.7950   14.5170 C.3    15  ASP15       0.1805
     11  C          8.7090   19.1870   15.6140 C.2    15  ASP15       0.2598
     12  O          8.3110   19.8330   16.5880 O.2    15  ASP15      -0.2718
     13  CB         6.4410   18.2560   15.1740 C.3    15  ASP15       0.1424
     14  CG         6.6600   16.9150   15.8860 C.2    15  ASP15       0.3668
     15  OD1        7.8150   16.5160   16.1650 O.co2  15  ASP15      -0.2456
     16  OD2        5.6630   16.2410   16.1650 O.co2  15  ASP15      -0.2456
     17  N          9.9760   18.7990   15.4830 N.am   16  THR16      -0.1953
     18  CA        10.9660   19.1440   16.5000 C.3    16  THR16       0.1897
     19  C         12.2430   19.6250   15.8390 C.2    16  THR16       0.2313
     20  O         12.6660   19.0550   14.8360 O.2    16  THR16      -0.2863
     21  CB        11.2690   17.9480   17.3890 C.3    16  THR16       0.1794
     22  OG1       10.0520   17.4410   17.9440 O.3    16  THR16      -0.2208
     23  CG2       12.1530   18.3480   18.4810 C.3    16  THR16       0.0378
     24  N          9.3450   22.3280   20.0610 N.3    28  ARG28      -0.1231
     25  CA         8.3370   21.3760   19.6340 C.3    28  ARG28       0.1694
     26  C          7.1310   22.2150   19.2450 C.2    28  ARG28       0.2592
     27  O          6.7450   23.1200   19.9810 O.2    28  ARG28      -0.2718
     28  CB         7.9750   20.4510   20.7950 C.3    28  ARG28       0.0321
     29  CG         6.7920   19.5150   20.5570 C.3    28  ARG28       0.0489
     30  CD         7.0350   18.5350   19.4170 C.3    28  ARG28       0.2205
     31  NE         6.0620   17.4430   19.4160 N.pl3  28  ARG28      -0.0865
     32  CZ         4.8060   17.5410   18.9660 C.cat  28  ARG28       0.5346
     33  NH1        4.3430   18.6810   18.4690 N.pl3  28  ARG28       0.1354
     34  NH2        4.0070   16.4850   19.0100 N.pl3  28  ARG28       0.1354
     35  N          6.5670   21.9490   18.0770 N.am   29  LEU29      -0.1966
     36  CA         5.4070   22.6810   17.5850 C.3    29  LEU29       0.1728
     37  C          4.1650   22.4950   18.4660 C.2    29  LEU29       0.2616
     38  O          3.8860   21.3860   18.9580 O.2    29  LEU29      -0.2715
     39  CB         5.0900   22.2330   16.1500 C.3    29  LEU29       0.0311
     40  CG         6.2050   22.5000   15.1290 C.3    29  LEU29       0.0022
     41  CD1        5.8880   21.8770   13.8130 C.3    29  LEU29       0.0001
     42  CD2        6.4120   23.9660   14.9580 C.3    29  LEU29       0.0001
     43  N          3.4390   23.5870   18.6910 N.am   30  LEU30      -0.1963
     44  CA         2.2070   23.5410   19.4720 C.3    30  LEU30       0.1728
     45  C          1.0530   23.0030   18.6060 C.2    30  LEU30       0.2616
     46  O          1.0230   23.2150   17.3820 O.2    30  LEU30      -0.2715
     47  CB         1.8200   24.9490   19.9550 C.3    30  LEU30       0.0311
     48  CG         2.4430   25.4860   21.2460 C.3    30  LEU30       0.0022
     49  CD1        2.0000   26.9100   21.5050 C.3    30  LEU30       0.0001
     50  CD2        2.0700   24.5930   22.4190 C.3    30  LEU30       0.0001
     51  N          0.1330   22.2920   19.2610 N.am   31  LEU31      -0.1963
     52  CA        -1.1010   21.7360   18.6770 C.3    31  LEU31       0.1728
     53  C         -1.0410   20.7960   17.4880 C.2    31  LEU31       0.2616
     54  O         -2.0440   20.6180   16.7990 O.2    31  LEU31      -0.2715
     55  CB        -2.0710   22.8680   18.3670 C.3    31  LEU31       0.0311
     56  CG        -2.3310   23.8170   19.5410 C.3    31  LEU31       0.0022
     57  CD1       -3.0530   25.0330   19.0540 C.3    31  LEU31       0.0001
     58  CD2       -3.1360   23.1310   20.6240 C.3    31  LEU31       0.0001
     59  N          0.1180   20.1970   17.2270 N.am   32  VAL32      -0.1963
     60  CA         0.2270   19.2690   16.1010 C.3    32  VAL32       0.1727
     61  C          1.1010   18.0690   16.4440 C.2    32  VAL32       0.2616
     62  O          1.8620   18.0870   17.4130 O.2    32  VAL32      -0.2715
     63  CB         0.8030   19.9440   14.8290 C.3    32  VAL32       0.0290
     64  CG1       -0.0470   21.1070   14.4220 C.3    32  VAL32       0.0023
     65  CG2        2.2550   20.4090   15.0550 C.3    32  VAL32       0.0023
     66  N          0.9910   17.0320   15.6320 N.am   33  ASP33      -0.1971
     67  CA         1.7610   15.8290   15.8310 C.3    33  ASP33       0.1709
     68  C          2.0490   15.2140   14.4610 C.2    33  ASP33       0.2293
     69  O          1.1290   14.8030   13.7410 O.2    33  ASP33      -0.2864
     70  CB         0.9850   14.8880   16.7700 C.3    33  ASP33       0.1436
     71  CG         1.5860   13.4840   16.8890 C.2    33  ASP33       0.3671
     72  OD1        2.5260   13.1310   16.1750 O.co2  33  ASP33      -0.2456
     73  OD2        1.1010   12.7080   17.7390 O.co2  33  ASP33      -0.2456
     74  N          6.0320    9.6640   13.7590 N.3    36  GLU36      -0.1245
     75  CA         7.3410    9.2850   14.2810 C.3    36  GLU36       0.1567
     76  C          8.3120    8.6750   13.2770 C.2    36  GLU36       0.2260
     77  O          7.9320    8.0170   12.3030 O.2    36  GLU36      -0.2867
     78  CB         7.1440    8.3370   15.4890 C.3    36  GLU36       0.0388
     79  CG         8.3680    8.0840   16.4220 C.3    36  GLU36       0.1160
     80  CD         8.9230    9.3480   17.0250 C.2    36  GLU36       0.3649
     81  OE1        8.1860   10.0360   17.7420 O.co2  36  GLU36      -0.2457
     82  OE2       10.0860    9.6850   16.7340 O.co2  36  GLU36      -0.2457
     83  N          7.7340   22.0300   27.6790 N.3    76  ASP76      -0.1225
     84  CA         7.0980   20.7850   28.0940 C.3    76  ASP76       0.1805
     85  C          8.0010   20.0690   29.1170 C.2    76  ASP76       0.2598
     86  O          9.0840   20.5610   29.4500 O.2    76  ASP76      -0.2718
     87  CB         6.7500   19.8840   26.8950 C.3    76  ASP76       0.1424
     88  CG         7.9660   19.3700   26.1410 C.2    76  ASP76       0.3668
     89  OD1        9.1190   19.5470   26.5700 O.co2  76  ASP76      -0.2456
     90  OD2        7.7420   18.7460   25.0880 O.co2  76  ASP76      -0.2456
     91  N          7.5800   18.9010   29.5840 N.am   77  LYS77      -0.1966
     92  CA         8.3400   18.1500   30.5840 C.3    77  LYS77       0.1728
     93  C          9.7550   17.7850   30.1750 C.2    77  LYS77       0.2616
     94  O         10.5880   17.5480   31.0460 O.2    77  LYS77      -0.2715
     95  CB         7.6000   16.8800   30.9940 C.3    77  LYS77       0.0311
     96  CG         7.2710   15.9490   29.8630 C.3    77  LYS77       0.0038
     97  CD         6.4790   14.7860   30.3880 C.3    77  LYS77       0.0206
     98  CE         6.0290   13.8690   29.2650 C.3    77  LYS77       0.1093
     99  NZ         4.7430   13.1540   29.5930 N.3    77  LYS77      -0.1314
    100  N         10.0220   17.7370   28.8620 N.am   78  TYR78      -0.1974
    101  CA        11.3520   17.3990   28.3230 C.3    78  TYR78       0.1639
    102  C         12.2260   18.6290   28.1300 C.2    78  TYR78       0.2290
    103  O         13.2900   18.5560   27.5110 O.2    78  TYR78      -0.2864
    104  CB        11.2220   16.6630   26.9820 C.3    78  TYR78       0.0560
    105  CG        10.4460   15.3640   27.0600 C.ar   78  TYR78      -0.0198
    106  CD1       11.0160   14.2250   27.6290 C.ar   78  TYR78      -0.0009
    107  CD2        9.1180   15.2930   26.6220 C.ar   78  TYR78      -0.0009
    108  CE1       10.2750   13.0430   27.7720 C.ar   78  TYR78       0.0417
    109  CE2        8.3670   14.1160   26.7590 C.ar   78  TYR78       0.0417
    110  CZ         8.9540   12.9980   27.3390 C.ar   78  TYR78       0.1957
    111  OH         8.2250   11.8510   27.5090 O.3    78  TYR78      -0.2866
    112  N         11.5420   21.1490   26.2390 N.3    80  ARG80      -0.1245
    113  CA        11.4080   21.6450   24.8620 C.3    80  ARG80       0.1563
    114  C         10.5620   22.9180   24.7930 C.2    80  ARG80       0.2260
    115  O          9.5480   23.0300   25.4790 O.2    80  ARG80      -0.2867
    116  CB        10.7660   20.5880   23.9560 C.3    80  ARG80       0.0307
    117  CG        11.5920   19.3600   23.8120 C.3    80  ARG80       0.0489
    118  CD        10.9600   18.2770   22.8920 C.3    80  ARG80       0.2205
    119  NE         9.5890   17.9210   23.2140 N.pl3  80  ARG80      -0.0865
    120  CZ         8.8840   16.9890   22.5820 C.cat  80  ARG80       0.5346
    121  NH1        9.4250   16.3160   21.5670 N.pl3  80  ARG80       0.1354
    122  NH2        7.6460   16.7230   22.9760 N.pl3  80  ARG80       0.1354
    123  N          7.8250   25.3720   23.5010 N.3    82  LEU82      -0.1245
    124  CA         6.5320   25.1140   22.8870 C.3    82  LEU82       0.1561
    125  C          6.0500   26.3680   22.1630 C.2    82  LEU82       0.2260
    126  O          5.6450   27.3420   22.7940 O.2    82  LEU82      -0.2867
    127  CB         5.5120   24.6950   23.9650 C.3    82  LEU82       0.0270
    128  CG         5.7080   23.3540   24.6770 C.3    82  LEU82       0.0019
    129  CD1        4.6600   23.1810   25.7740 C.3    82  LEU82       0.0001
    130  CD2        5.6300   22.2400   23.6730 C.3    82  LEU82       0.0001
    131  N         -2.5340   17.0740   21.1080 N.3   106  TYR106     -0.1241
    132  CA        -2.0440   17.6990   22.3310 C.3   106  TYR106      0.1605
    133  C         -2.6100   19.0850   22.6090 C.2   106  TYR106      0.2264
    134  O         -1.8600   20.0500   22.7700 O.2   106  TYR106     -0.2867
    135  CB        -0.5110   17.7520   22.2960 C.3   106  TYR106      0.0534
    136  CG         0.1210   16.4000   22.0900 C.ar  106  TYR106     -0.0201
    137  CD1        0.0310   15.4050   23.0790 C.ar  106  TYR106     -0.0009
    138  CD2        0.7730   16.0930   20.9010 C.ar  106  TYR106     -0.0009
    139  CE1        0.5740   14.1450   22.8810 C.ar  106  TYR106      0.0417
    140  CE2        1.3180   14.8250   20.6910 C.ar  106  TYR106      0.0417
    141  CZ         1.2130   13.8550   21.6860 C.ar  106  TYR106      0.1957
    142  OH         1.7390   12.6050   21.4550 O.3   106  TYR106     -0.2866
    143  N         -3.7300   21.3180   25.0710 N.3   108  TYR108     -0.1241
    144  CA        -3.8260   21.6370   26.4810 C.3   108  TYR108      0.1605
    145  C         -4.0830   23.1290   26.6390 C.2   108  TYR108      0.2264
    146  O         -3.2320   23.9550   26.2950 O.2   108  TYR108     -0.2867
    147  CB        -2.5220   21.2900   27.1970 C.3   108  TYR108      0.0534
    148  CG        -2.0110   19.8870   26.9790 C.ar  108  TYR108     -0.0201
    149  CD1       -2.7650   18.7770   27.3580 C.ar  108  TYR108     -0.0009
    150  CD2       -0.7340   19.6670   26.4550 C.ar  108  TYR108     -0.0009
    151  CE1       -2.2550   17.4900   27.2300 C.ar  108  TYR108      0.0417
    152  CE2       -0.2200   18.3840   26.3220 C.ar  108  TYR108      0.0417
    153  CZ        -0.9820   17.3070   26.7150 C.ar  108  TYR108      0.1957
    154  OH        -0.4550   16.0480   26.6240 O.3   108  TYR108     -0.2866
    155  N         -2.9080   26.8140   26.1490 N.3   111  ASN111     -0.1240
    156  CA        -2.0320   26.8580   24.9730 C.3   111  ASN111      0.1653
    157  C         -2.7790   26.3850   23.7450 C.2   111  ASN111      0.2266
    158  O         -2.3930   25.4070   23.1170 O.2   111  ASN111     -0.2867
    159  CB        -0.7700   26.0100   25.1780 C.3   111  ASN111      0.1155
    160  CG         0.3290   26.7630   25.9110 C.2   111  ASN111      0.2627
    161  OD1        0.2060   27.9560   26.1870 O.2   111  ASN111     -0.2716
    162  ND2        1.4110   26.0740   26.2220 N.am  111  ASN111     -0.0877
@<TRIPOS>BOND
     1     3     4    2
     2     3     2    1
     3    77    76    2
     4     2     1    1
     5     2     5    1
     6     5     6    1
     7    76    75    1
     8     9    10    1
     9    69    68    2
    10    74    75    1
    11    41    40    1
    12    75    78    1
    13    64    63    1
    14    68    67    1
    15     6     7   ar
    16     6     8   ar
    17    10    13    1
    18    10    11    1
    19    63    65    1
    20    63    60    1
    21    20    19    2
    22    42    40    1
    23    40    39    1
    24    13    14    1
    25    17    11   am
    26    17    18    1
    27    78    79    1
    28    11    12    2
    29    66    67    1
    30    66    61   am
    31    67    70    1
    32    19    18    1
    33    14    16   ar
    34    14    15   ar
    35    60    61    1
    36    60    59    1
    37    39    36    1
    38    72    71   ar
    39    79    80    1
    40    61    62    2
    41    18    21    1
    42    82    80   ar
    43    70    71    1
    44    54    53    2
    45    71    73   ar
    46    80    81   ar
    47    59    53   am
    48    46    45    2
    49    21    22    1
    50    21    23    1
    51    53    52    1
    52    36    35    1
    53    36    37    1
    54    35    26   am
    55    55    52    1
    56    55    56    1
    57    37    43   am
    58    37    38    2
    59    33    32    1
    60    45    51   am
    61    45    44    1
    62    52    51    1
    63    43    44    1
    64    32    34    1
    65    32    31    2
    66    57    56    1
    67    26    25    1
    68    26    27    2
    69    31    30    1
    70    30    29    1
    71    44    47    1
    72    56    58    1
    73    25    24    1
    74    25    28    1
    75    47    48    1
    76    29    28    1
    77   140   138   ar
    78   140   141   ar
    79   138   136   ar
    80   131   132    1
    81    48    49    1
    82    48    50    1
    83   142   141    1
    84   121   120    1
    85   141   139   ar
    86   136   135    1
    87   136   137   ar
    88   125   126    2
    89   125   124    1
    90   135   132    1
    91   132   133    1
    92   120   122    1
    93   120   119    2
    94   133   134    2
    95   139   137   ar
    96   124   123    1
    97   124   127    1
    98   118   119    1
    99   118   117    1
   100   158   157    2
   101   130   128    1
   102   157   156    1
   103   117   116    1
   104   116   113    1
   105   127   128    1
   106   128   129    1
   107   114   113    1
   108   114   115    2
   109   113   112    1
   110   156   159    1
   111   156   155    1
   112   143   144    1
   113    90    88   ar
   114   159   160    1
   115   160   161    2
   116   160   162   am
   117    88    89   ar
   118    88    87    1
   119   146   145    2
   120   152   150   ar
   121   152   153   ar
   122   150   148   ar
   123   144   145    1
   124   144   147    1
   125   107   109   ar
   126   107   105   ar
   127   154   153    1
   128   153   151   ar
   129   109   110   ar
   130    87    84    1
   131   148   147    1
   132   148   149   ar
   133   104   105    1
   134   104   101    1
   135   105   106   ar
   136   151   149   ar
   137   110   111    1
   138   110   108   ar
   139   103   102    2
   140   106   108   ar
   141    83    84    1
   142    84    85    1
   143   102   101    1
   144   101   100    1
   145   100    93   am
   146    85    86    2
   147    85    91   am
   148    98    99    1
   149    98    97    1
   150    91    92    1
   151    96    97    1
   152    96    95    1
   153    93    92    1
   154    93    94    2
   155    92    95    1
