@<TRIPOS>MOLECULE
tmp/1a3wA00.pdb
 139 125 0 0 0
SMALL
GASTEIGER

@<TRIPOS>ATOM
      1  N         24.5000    5.3610   16.1230 N.3    43  ARG43      -0.1245
      2  CA        25.5790    4.7570   15.3460 C.3    43  ARG43       0.1563
      3  C         25.5340    5.2240   13.9030 C.2    43  ARG43       0.2260
      4  O         24.4680    5.3200   13.3000 O.2    43  ARG43      -0.2867
      5  CB        25.4880    3.2290   15.3870 C.3    43  ARG43       0.0307
      6  CG        26.7240    2.5400   15.9460 C.3    43  ARG43       0.0489
      7  CD        27.5550    1.8750   14.8500 C.3    43  ARG43       0.2205
      8  NE        26.7490    1.0040   13.9950 N.pl3  43  ARG43      -0.0865
      9  CZ        27.2390    0.0390   13.2190 C.cat  43  ARG43       0.5346
     10  NH1       28.5430   -0.1990   13.1780 N.pl3  43  ARG43       0.1354
     11  NH2       26.4190   -0.6870   12.4720 N.pl3  43  ARG43       0.1354
     12  N         27.1760    3.9630   10.6980 N.3    45  ASN45      -0.1240
     13  CA        27.9550    2.9750    9.9710 C.3    45  ASN45       0.1653
     14  C         28.4430    3.5770    8.6560 C.2    45  ASN45       0.2266
     15  O         27.7040    3.6430    7.6780 O.2    45  ASN45      -0.2867
     16  CB        27.1080    1.7300    9.7070 C.3    45  ASN45       0.1155
     17  CG        27.8310    0.7030    8.8630 C.2    45  ASN45       0.2627
     18  OD1       29.0600    0.6740    8.8140 O.2    45  ASN45      -0.2716
     19  ND2       27.0700   -0.1480    8.1910 N.am   45  ASN45      -0.0877
     20  N         30.2400    2.3550    6.6100 N.3    47  SER47      -0.1217
     21  CA        30.5890    1.2740    5.7020 C.3    47  SER47       0.1889
     22  C         29.8280    1.5160    4.4130 C.2    47  SER47       0.2288
     23  O         30.3180    1.2400    3.3170 O.2    47  SER47      -0.2866
     24  CB        30.1850   -0.0760    6.2990 C.3    47  SER47       0.2089
     25  OG        31.2970   -0.7410    6.8730 O.3    47  SER47      -0.2183
     26  N         30.9370    5.1290   13.1540 N.3    78  ASP78      -0.1239
     27  CA        31.5320    3.8110   12.9660 C.3    78  ASP78       0.1674
     28  C         32.3580    3.7400   11.6960 C.2    78  ASP78       0.2266
     29  O         31.8200    3.5750   10.6030 O.2    78  ASP78      -0.2867
     30  CB        30.4510    2.7360   12.9140 C.3    78  ASP78       0.1410
     31  CG        30.9720    1.3760   13.3230 C.2    78  ASP78       0.3668
     32  OD1       31.8330    0.8230   12.6070 O.co2  78  ASP78      -0.2456
     33  OD2       30.5200    0.8630   14.3700 O.co2  78  ASP78      -0.2456
     34  N         38.2010   -3.6160    5.6520 N.3    83  GLU83      -0.1245
     35  CA        37.3840   -4.7850    5.3200 C.3    83  GLU83       0.1567
     36  C         37.4970   -5.1720    3.8490 C.2    83  GLU83       0.2260
     37  O         37.7510   -4.3250    2.9890 O.2    83  GLU83      -0.2867
     38  CB        35.9110   -4.5260    5.6680 C.3    83  GLU83       0.0388
     39  CG        35.1600   -3.6810    4.6440 C.3    83  GLU83       0.1160
     40  CD        33.7570   -3.3170    5.0970 C.2    83  GLU83       0.3649
     41  OE1       33.4040   -3.6080    6.2640 O.co2  83  GLU83      -0.2457
     42  OE2       33.0060   -2.7370    4.2790 O.co2  83  GLU83      -0.2457
     43  N         35.7660   -7.0770    0.4020 N.3    85  ARG85      -0.1245
     44  CA        34.4410   -7.2470   -0.1830 C.3    85  ARG85       0.1563
     45  C         34.5010   -7.8070   -1.5960 C.2    85  ARG85       0.2260
     46  O         35.4080   -7.4950   -2.3620 O.2    85  ARG85      -0.2867
     47  CB        33.6840   -5.9130   -0.1860 C.3    85  ARG85       0.0307
     48  CG        32.8380   -5.6910    1.0600 C.3    85  ARG85       0.0489
     49  CD        31.6990   -4.7140    0.8220 C.3    85  ARG85       0.2205
     50  NE        31.3600   -3.9800    2.0390 N.pl3  85  ARG85      -0.0865
     51  CZ        30.4980   -4.4090    2.9560 C.cat  85  ARG85       0.5346
     52  NH1       29.8810   -5.5700    2.7970 N.pl3  85  ARG85       0.1354
     53  NH2       30.2570   -3.6790    4.0360 N.pl3  85  ARG85       0.1354
     54  N         37.0050    0.5050   13.6560 N.3   205  SER205     -0.1202
     55  CA        36.7540   -0.8640   13.2320 C.3   205  SER205      0.2020
     56  C         37.9940   -1.6780   12.8940 C.2   205  SER205      0.2618
     57  O         38.9540   -1.1650   12.3190 O.2   205  SER205     -0.2717
     58  CB        35.8160   -0.8650   12.0300 C.3   205  SER205      0.2103
     59  OG        34.8000   -1.8340   12.1930 O.3   205  SER205     -0.2182
     60  N         37.9510   -2.9570   13.2610 N.am  206  PHE206     -0.1975
     61  CA        39.0280   -3.9080   13.0080 C.3   206  PHE206      0.1639
     62  C         40.3860   -3.5680   13.6140 C.2   206  PHE206      0.2290
     63  O         41.4200   -3.7030   12.9560 O.2   206  PHE206     -0.2864
     64  CB        39.1730   -4.1270   11.5020 C.3   206  PHE206      0.0560
     65  CG        38.0440   -4.9080   10.9020 C.ar  206  PHE206     -0.0200
     66  CD1       36.9060   -4.2600   10.4430 C.ar  206  PHE206     -0.0042
     67  CD2       38.1040   -6.2950   10.8280 C.ar  206  PHE206     -0.0042
     68  CE1       35.8410   -4.9820    9.9200 C.ar  206  PHE206     -0.0003
     69  CE2       37.0440   -7.0270   10.3060 C.ar  206  PHE206     -0.0003
     70  CZ        35.9100   -6.3690    9.8520 C.ar  206  PHE206     -0.0000
     71  N         36.9170   -1.5460   18.3820 N.3   232  LYS232     -0.1245
     72  CA        36.0050   -2.6440   18.0540 C.3   232  LYS232      0.1561
     73  C         36.8330   -3.9150   17.8620 C.2   232  LYS232      0.2260
     74  O         37.5520   -4.0400   16.8670 O.2   232  LYS232     -0.2867
     75  CB        35.2570   -2.3340   16.7510 C.3   232  LYS232      0.0271
     76  CG        33.9380   -1.5820   16.9230 C.3   232  LYS232      0.0035
     77  CD        32.7940   -2.2680   16.1720 C.3   232  LYS232      0.0206
     78  CE        32.5260   -1.6170   14.8290 C.3   232  LYS232      0.1093
     79  NZ        33.7820   -1.0440   14.2660 N.3   232  LYS232     -0.1314
     80  N         37.3060   -7.1090   16.5060 N.3   234  GLU234     -0.1245
     81  CA        36.6790   -7.9350   15.4730 C.3   234  GLU234      0.1567
     82  C         37.4030   -9.1970   15.0100 C.2   234  GLU234      0.2260
     83  O         36.7610  -10.1490   14.5610 O.2   234  GLU234     -0.2867
     84  CB        36.3720   -7.0650   14.2520 C.3   234  GLU234      0.0388
     85  CG        35.0000   -6.3780   14.3060 C.3   234  GLU234      0.1160
     86  CD        35.0480   -4.9160   13.9110 C.2   234  GLU234      0.3649
     87  OE1       35.9350   -4.2000   14.4070 O.co2 234  GLU234     -0.2457
     88  OE2       34.1980   -4.4840   13.1040 O.co2 234  GLU234     -0.2457
     89  N         34.6800   -2.3610   22.0480 N.3   253  MET253     -0.1245
     90  CA        33.3780   -2.8030   21.5790 C.3   253  MET253      0.1570
     91  C         33.4180   -4.2540   21.1600 C.2   253  MET253      0.2261
     92  O         34.1490   -4.6250   20.2420 O.2   253  MET253     -0.2867
     93  CB        32.9190   -1.9580   20.3970 C.3   253  MET253      0.0387
     94  CG        31.4170   -1.9090   20.2530 C.3   253  MET253      0.0595
     95  SD        30.9030   -2.2900   18.5780 S.3   253  MET253     -0.1393
     96  CE        30.0290   -0.7750   18.1760 C.3   253  MET253      0.0692
     97  N         32.8300   -6.7490   19.1370 N.3   255  ALA255     -0.1245
     98  CA        32.4380   -6.8630   17.7430 C.3   255  ALA255      0.1562
     99  C         32.0230   -8.2830   17.3850 C.2   255  ALA255      0.2260
    100  O         32.6260   -8.9090   16.5190 O.2   255  ALA255     -0.2867
    101  CB        33.5930   -6.4140   16.8530 C.3   255  ALA255      0.0290
    102  N         29.4570   -9.7390   15.6240 N.3   257  GLY257     -0.1210
    103  CA        29.2190   -9.9460   14.2030 C.3   257  GLY257      0.1956
    104  C         30.3560  -10.5160   13.3750 C.2   257  GLY257      0.2611
    105  O         30.2110  -11.5690   12.7520 O.2   257  GLY257     -0.2717
    106  N         31.4850   -9.8160   13.3500 N.am  258  ASP258     -0.1973
    107  CA        32.6410  -10.2720   12.5880 C.3   258  ASP258      0.1709
    108  C         33.5450  -11.1120   13.4860 C.2   258  ASP258      0.2293
    109  O         34.3990  -11.8560   13.0040 O.2   258  ASP258     -0.2864
    110  CB        33.4180   -9.0790   12.0300 C.3   258  ASP258      0.1436
    111  CG        32.7850   -8.5020   10.7790 C.2   258  ASP258      0.3671
    112  OD1       32.6550   -9.2530    9.7880 O.co2 258  ASP258     -0.2456
    113  OD2       32.4270   -7.3030   10.7860 O.co2 258  ASP258     -0.2456
    114  N         27.5270   -5.6160   20.8790 N.3   289  ALA289     -0.1231
    115  CA        26.7170   -5.3740   19.6880 C.3   289  ALA289      0.1694
    116  C         26.5520   -6.5070   18.6770 C.2   289  ALA289      0.2592
    117  O         27.2120   -7.5440   18.7560 O.2   289  ALA289     -0.2718
    118  CB        27.2460   -4.1450   18.9750 C.3   289  ALA289      0.0304
    119  N         25.6400   -6.2750   17.7340 N.am  290  THR290     -0.1953
    120  CA        25.3290   -7.1920   16.6390 C.3   290  THR290      0.1897
    121  C         24.3720   -8.3490   16.9320 C.2   290  THR290      0.2313
    122  O         24.6450   -9.2020   17.7750 O.2   290  THR290     -0.2863
    123  CB        26.6160   -7.7720   16.0240 C.3   290  THR290      0.1794
    124  OG1       27.6000   -6.7350   15.9140 O.3   290  THR290     -0.2208
    125  CG2       26.3300   -8.3430   14.6380 C.3   290  THR290      0.0378
    126  N         24.0430   -1.9870   21.7080 N.3   322  MET322     -0.1245
    127  CA        23.5550   -1.3490   20.4950 C.3   322  MET322      0.1570
    128  C         22.7020   -2.2190   19.5670 C.2   322  MET322      0.2261
    129  O         22.7160   -3.4500   19.6440 O.2   322  MET322     -0.2867
    130  CB        24.7410   -0.7780   19.7160 C.3   322  MET322      0.0387
    131  CG        25.2440   -1.6470   18.5800 C.3   322  MET322      0.0595
    132  SD        26.8010   -1.0200   17.9470 S.3   322  MET322     -0.1393
    133  CE        26.6280   -1.2730   16.1840 C.3   322  MET322      0.0692
    134  N         21.9260   -2.8660   15.5310 N.3   324  SER324     -0.1217
    135  CA        22.4720   -2.6530   14.1950 C.3   324  SER324      0.1889
    136  C         21.3780   -2.4790   13.1430 C.2   324  SER324      0.2288
    137  O         20.6000   -1.5230   13.1950 O.2   324  SER324     -0.2866
    138  CB        23.3770   -3.8260   13.8090 C.3   324  SER324      0.2089
    139  OG        24.7200   -3.5810   14.1860 O.3   324  SER324     -0.2183
@<TRIPOS>BOND
     1    46    45    2
     2    45    44    1
     3    47    44    1
     4    47    48    1
     5    44    43    1
     6    49    48    1
     7    49    50    1
     8    50    51    2
     9    52    51    1
    10    51    53    1
    11    37    36    2
    12    23    22    2
    13    36    35    1
    14    42    40   ar
    15    22    21    1
    16    39    40    1
    17    39    38    1
    18    40    41   ar
    19    35    34    1
    20    35    38    1
    21    21    24    1
    22    21    20    1
    23    24    25    1
    24    15    14    2
    25    19    17   am
    26    14    13    1
    27    18    17    2
    28    17    16    1
    29    16    13    1
    30   112   111   ar
    31    70    68   ar
    32    70    69   ar
    33    68    66   ar
    34    13    12    1
    35    69    67   ar
    36    66    65   ar
    37    29    28    2
    38   111   113   ar
    39   111   110    1
    40    67    65   ar
    41    65    64    1
    42    64    61    1
    43    28    27    1
    44    58    59    1
    45    58    55    1
    46   110   107    1
    47    57    56    2
    48    11     9    1
    49   107   106    1
    50   107   108    1
    51    32    31   ar
    52   105   104    2
    53    56    55    1
    54    56    60   am
    55    30    27    1
    56    30    31    1
    57    63    62    2
    58    27    26    1
    59   109   108    2
    60    61    60    1
    61    61    62    1
    62    88    86   ar
    63   136   137    2
    64   136   135    1
    65    10     9    1
    66     9     8    2
    67    55    54    1
    68     4     3    2
    69    31    33   ar
    70   106   104   am
    71   104   103    1
    72   138   139    1
    73   138   135    1
    74     3     2    1
    75    86    85    1
    76    86    87   ar
    77     8     7    1
    78   135   134    1
    79   103   102    1
    80    84    85    1
    81    84    81    1
    82    79    78    1
    83    83    82    2
    84   125   123    1
    85    78    77    1
    86     7     6    1
    87    82    81    1
    88     2     5    1
    89     2     1    1
    90     5     6    1
    91    81    80    1
    92   124   123    1
    93   123   120    1
    94    77    76    1
    95   133   132    1
    96   100    99    2
    97   120   121    1
    98   120   119    1
    99    75    76    1
   100    75    72    1
   101   101    98    1
   102    74    73    2
   103   121   122    2
   104    99    98    1
   105   119   116   am
   106    98    97    1
   107    73    72    1
   108   132   131    1
   109    72    71    1
   110    96    95    1
   111    95    94    1
   112   131   130    1
   113   116   117    2
   114   116   115    1
   115   118   115    1
   116   128   129    2
   117   128   127    1
   118   115   114    1
   119   130   127    1
   120    92    91    2
   121    94    93    1
   122    93    90    1
   123   127   126    1
   124    91    90    1
   125    90    89    1
