@<TRIPOS>MOLECULE
tmp/1a3wA01.pdb
 125 120 0 0 0
SMALL
GASTEIGER

@<TRIPOS>ATOM
      1  N         29.4220   16.3350   39.6080 N.3   393  LEU393     -0.1231
      2  CA        29.6820   17.2740   38.5330 C.3   393  LEU393      0.1693
      3  C         31.0970   17.0320   38.0290 C.2   393  LEU393      0.2593
      4  O         32.0080   16.7720   38.8130 O.2   393  LEU393     -0.2718
      5  CB        29.5360   18.7220   39.0230 C.3   393  LEU393      0.0284
      6  CG        29.7190   19.0500   40.5110 C.3   393  LEU393      0.0019
      7  CD1       30.9350   19.9400   40.6930 C.3   393  LEU393      0.0001
      8  CD2       28.4830   19.7500   41.0440 C.3   393  LEU393      0.0001
      9  N         31.2740   17.1000   36.7180 N.am  394  SER394     -0.1938
     10  CA        32.5810   16.9000   36.1240 C.3   394  SER394      0.2055
     11  C         32.5770   17.4850   34.7240 C.2   394  SER394      0.2644
     12  O         31.5190   17.6480   34.1230 O.2   394  SER394     -0.2714
     13  CB        32.9130   15.4150   36.0710 C.3   394  SER394      0.2130
     14  OG        33.3340   15.0410   34.7690 O.3   394  SER394     -0.2179
     15  N         33.7580   17.7980   34.2060 N.am  395  THR395     -0.1936
     16  CA        33.8780   18.3890   32.8790 C.3   395  THR395      0.2028
     17  C         34.6010   17.5040   31.8670 C.2   395  THR395      0.2642
     18  O         34.5100   17.7340   30.6620 O.2   395  THR395     -0.2714
     19  CB        34.6080   19.7530   32.9510 C.3   395  THR395      0.1808
     20  OG1       35.9710   19.5890   32.5440 O.3   395  THR395     -0.2208
     21  CG2       34.5670   20.3140   34.3720 C.3   395  THR395      0.0379
     22  N         35.3150   16.4960   32.3560 N.am  396  SER396     -0.1949
     23  CA        36.0570   15.5840   31.4900 C.3   396  SER396      0.1924
     24  C         35.4100   14.2050   31.4550 C.2   396  SER396      0.2314
     25  O         35.8400   13.3230   30.7120 O.2   396  SER396     -0.2863
     26  CB        37.5000   15.4650   31.9790 C.3   396  SER396      0.2116
     27  OG        37.9070   14.1100   32.0390 O.3   396  SER396     -0.2180
     28  N         35.6620   11.9920   33.4680 N.3   398  THR398     -0.1203
     29  CA        36.4730   11.1100   34.3030 C.3   398  THR398      0.1994
     30  C         35.7770   10.6470   35.5760 C.2   398  THR398      0.2618
     31  O         35.4920    9.4630   35.7410 O.2   398  THR398     -0.2717
     32  CB        37.7890   11.7910   34.7120 C.3   398  THR398      0.1784
     33  OG1       38.6120   11.9830   33.5550 O.3   398  THR398     -0.2211
     34  CG2       38.5350   10.9370   35.7190 C.3   398  THR398      0.0376
     35  N         35.5140   11.5830   36.4810 N.am  399  THR399     -0.1952
     36  CA        34.8670   11.2580   37.7520 C.3   399  THR399      0.1897
     37  C         33.6160   10.3810   37.6170 C.2   399  THR399      0.2313
     38  O         33.5580    9.2800   38.1710 O.2   399  THR399     -0.2863
     39  CB        34.4890   12.5390   38.5370 C.3   399  THR399      0.1794
     40  OG1       35.6800   13.2200   38.9490 O.3   399  THR399     -0.2208
     41  CG2       33.6660   12.1840   39.7640 C.3   399  THR399      0.0378
     42  N         28.7810   21.4400   32.4150 N.3   417  ARG417     -0.1245
     43  CA        28.6680   22.6120   31.5660 C.3   417  ARG417      0.1563
     44  C         28.9530   22.1480   30.1470 C.2   417  ARG417      0.2260
     45  O         28.2640   22.5330   29.2080 O.2   417  ARG417     -0.2867
     46  CB        29.6920   23.6740   31.9770 C.3   417  ARG417      0.0307
     47  CG        29.5980   24.1250   33.4310 C.3   417  ARG417      0.0489
     48  CD        29.7470   25.6390   33.5570 C.3   417  ARG417      0.2205
     49  NE        28.6110   26.2390   34.2520 N.pl3 417  ARG417     -0.0865
     50  CZ        28.6640   26.7180   35.4890 C.cat 417  ARG417      0.5346
     51  NH1       29.7990   26.6690   36.1690 N.pl3 417  ARG417      0.1354
     52  NH2       27.5830   27.2390   36.0510 N.pl3 417  ARG417      0.1354
     53  N         34.0320   29.1350   43.2590 N.3   444  TRP444     -0.1241
     54  CA        34.1590   27.7080   42.9920 C.3   444  TRP444      0.1605
     55  C         33.6200   27.0220   44.2370 C.2   444  TRP444      0.2264
     56  O         33.8900   25.8440   44.4760 O.2   444  TRP444     -0.2867
     57  CB        35.6390   27.3510   42.8120 C.3   444  TRP444      0.0550
     58  CG        35.9180   26.0290   42.1300 C.ar  444  TRP444      0.0003
     59  CD1       35.0080   25.2040   41.5410 C.ar  444  TRP444      0.0946
     60  CD2       37.2050   25.4160   41.9310 C.ar  444  TRP444      0.0152
     61  NE1       35.6410   24.1160   40.9860 N.ar  444  TRP444     -0.2442
     62  CE2       36.9890   24.2200   41.2090 C.ar  444  TRP444      0.0810
     63  CE3       38.5170   25.7570   42.2920 C.ar  444  TRP444      0.0012
     64  CZ2       38.0390   23.3630   40.8400 C.ar  444  TRP444      0.0191
     65  CZ3       39.5620   24.9010   41.9220 C.ar  444  TRP444      0.0001
     66  CH2       39.3120   23.7230   41.2030 C.ar  444  TRP444      0.0015
     67  N         29.2200   28.2720   43.1280 N.3   447  ASP447     -0.1225
     68  CA        28.8570   27.7870   41.8100 C.3   447  ASP447      0.1805
     69  C         28.6230   26.2810   41.8410 C.2   447  ASP447      0.2597
     70  O         27.5420   25.8040   41.4950 O.2   447  ASP447     -0.2718
     71  CB        29.9650   28.1140   40.8160 C.3   447  ASP447      0.1424
     72  CG        29.6100   27.7210   39.4120 C.2   447  ASP447      0.3668
     73  OD1       28.5100   28.0890   38.9510 O.co2 447  ASP447     -0.2456
     74  OD2       30.4340   27.0410   38.7700 O.co2 447  ASP447     -0.2456
     75  N         29.6440   25.5370   42.2560 N.am  448  VAL448     -0.1980
     76  CA        29.5520   24.0830   42.3410 C.3   448  VAL448      0.1595
     77  C         28.3160   23.7080   43.1340 C.2   448  VAL448      0.2287
     78  O         27.6340   22.7400   42.8160 O.2   448  VAL448     -0.2864
     79  CB        30.7910   23.4720   43.0410 C.3   448  VAL448      0.0276
     80  CG1       32.0540   24.1570   42.5540 C.3   448  VAL448      0.0022
     81  CG2       30.6650   23.6080   44.5470 C.3   448  VAL448      0.0022
     82  N         25.2910   24.2450   41.3550 N.3   451  ARG451     -0.1245
     83  CA        25.3410   23.1800   40.3710 C.3   451  ARG451      0.1563
     84  C         24.8190   21.9050   41.0300 C.2   451  ARG451      0.2260
     85  O         23.9890   21.1950   40.4640 O.2   451  ARG451     -0.2867
     86  CB        26.7850   22.9730   39.9140 C.3   451  ARG451      0.0307
     87  CG        26.9720   22.9900   38.4150 C.3   451  ARG451      0.0489
     88  CD        28.1670   23.8460   38.0000 C.3   451  ARG451      0.2205
     89  NE        29.2280   23.8760   39.0060 N.pl3 451  ARG451     -0.0865
     90  CZ        30.5210   23.7350   38.7270 C.cat 451  ARG451      0.5346
     91  NH1       30.9180   23.5530   37.4730 N.pl3 451  ARG451      0.1354
     92  NH2       31.4230   23.7820   39.6990 N.pl3 451  ARG451      0.1354
     93  N         32.6470   16.1960   44.5720 N.3   475  GLN475     -0.1231
     94  CA        33.2950   17.4020   44.0660 C.3   475  GLN475      0.1698
     95  C         34.7470   17.4430   44.5280 C.2   475  GLN475      0.2592
     96  O         35.1340   16.7260   45.4540 O.2   475  GLN475     -0.2718
     97  CB        32.5750   18.6470   44.5750 C.3   475  GLN475      0.0381
     98  CG        32.4340   18.6960   46.0820 C.3   475  GLN475      0.0905
     99  CD        31.8880   20.0190   46.5700 C.2   475  GLN475      0.2608
    100  OE1       32.4820   20.6760   47.4240 O.2   475  GLN475     -0.2717
    101  NE2       30.7490   20.4200   46.0280 N.am  475  GLN475     -0.0878
    102  N         35.5450   18.2940   43.8930 N.am  476  GLY476     -0.1957
    103  CA        36.9460   18.3860   44.2550 C.3   476  GLY476      0.1869
    104  C         37.3320   19.6720   44.9530 C.2   476  GLY476      0.2309
    105  O         36.4840   20.5260   45.2250 O.2   476  GLY476     -0.2863
    106  N         42.9310   21.0360   41.7430 N.3   482  GLY482     -0.1210
    107  CA        41.7690   20.3320   42.2560 C.3   482  GLY482      0.1956
    108  C         41.1940   19.3850   41.2230 C.2   482  GLY482      0.2612
    109  O         41.1140   19.7360   40.0410 O.2   482  GLY482     -0.2717
    110  N         40.8090   18.1880   41.6660 N.am  483  HIS483     -0.1961
    111  CA        40.2380   17.1760   40.7870 C.3   483  HIS483      0.1787
    112  C         39.5380   16.0690   41.5590 C.2   483  HIS483      0.2620
    113  O         39.9900   14.9230   41.5690 O.2   483  HIS483     -0.2715
    114  CB        41.3200   16.5750   39.8980 C.3   483  HIS483      0.0785
    115  CG        41.2240   17.0080   38.4700 C.ar  483  HIS483      0.0821
    116  ND1       42.2260   17.7110   37.8350 N.ar  483  HIS483     -0.2267
    117  CD2       40.2350   16.8550   37.5570 C.ar  483  HIS483      0.1154
    118  CE1       41.8560   17.9730   36.5950 C.ar  483  HIS483      0.1986
    119  NE2       40.6530   17.4650   36.4000 N.ar  483  HIS483     -0.2212
    120  N         38.4250   16.4190   42.1980 N.am  484  SER484     -0.1950
    121  CA        37.6330   15.4670   42.9720 C.3   484  SER484      0.1924
    122  C         38.4250   14.8090   44.1010 C.2   484  SER484      0.2314
    123  O         39.4780   14.1990   43.8770 O.2   484  SER484     -0.2863
    124  CB        37.0400   14.3870   42.0550 C.3   484  SER484      0.2116
    125  OG        37.2370   14.6900   40.6840 O.3   484  SER484     -0.2180
@<TRIPOS>BOND
     1    45    44    2
     2    44    43    1
     3    18    17    2
     4    25    24    2
     5    24    23    1
     6    23    26    1
     7    23    22    1
     8    43    46    1
     9    43    42    1
    10    17    22   am
    11    17    16    1
    12    46    47    1
    13    26    27    1
    14    20    19    1
    15    16    19    1
    16    16    15    1
    17    19    21    1
    18    47    48    1
    19    28    29    1
    20    33    32    1
    21    48    49    1
    22    12    11    2
    23    15    11   am
    24    49    50    2
    25    29    32    1
    26    29    30    1
    27    32    34    1
    28    11    10    1
    29    14    13    1
    30    50    52    1
    31    50    51    1
    32    30    31    2
    33    30    35   am
    34    13    10    1
    35    10     9    1
    36   119   118   ar
    37   119   117   ar
    38    35    36    1
    39   118   116   ar
    40     9     3   am
    41    91    90    1
    42   117   115   ar
    43    37    36    1
    44    37    38    2
    45    36    39    1
    46   116   115   ar
    47    88    87    1
    48    88    89    1
    49     3     2    1
    50     3     4    2
    51    87    86    1
    52   115   114    1
    53     2     5    1
    54     2     1    1
    55    39    40    1
    56    39    41    1
    57    90    89    2
    58    90    92    1
    59    74    72   ar
    60    73    72   ar
    61     5     6    1
    62    72    71    1
    63   114   111    1
    64    86    83    1
    65   109   108    2
    66    83    84    1
    67    83    82    1
    68    85    84    2
    69     6     7    1
    70     6     8    1
    71   125   124    1
    72   111   112    1
    73   111   110    1
    74    71    68    1
    75    64    66   ar
    76    64    62   ar
    77    61    62   ar
    78    61    59   ar
    79    66    65   ar
    80    62    60   ar
    81   108   110   am
    82   108   107    1
    83    70    69    2
    84    59    58   ar
    85   112   113    2
    86   112   120   am
    87   106   107    1
    88    68    69    1
    89    68    67    1
    90    69    75   am
    91    65    63   ar
    92    60    58   ar
    93    60    63   ar
    94   124   121    1
    95    58    57    1
    96   120   121    1
    97    75    76    1
    98    76    79    1
    99    76    77    1
   100    80    79    1
   101    57    54    1
   102    78    77    2
   103   121   122    1
   104    54    53    1
   105    54    55    1
   106    79    81    1
   107   123   122    2
   108   102   103    1
   109   102    95   am
   110    94    95    1
   111    94    93    1
   112    94    97    1
   113    55    56    2
   114   103   104    1
   115    95    96    2
   116    97    98    1
   117   104   105    2
   118   101    99   am
   119    98    99    1
   120    99   100    2
