@<TRIPOS>MOLECULE
tmp/1a42A00.pdb
 181 177 0 0 0
SMALL
GASTEIGER

@<TRIPOS>ATOM
      1  N          8.2570   -0.4140   10.6350 N.3     2  TRP2       -0.1241
      2  CA         7.4810   -1.3870   11.3840 C.3     2  TRP2        0.1605
      3  C          6.5100   -2.2040   10.5630 C.2     2  TRP2        0.2264
      4  O          6.0660   -1.7700    9.4860 O.2     2  TRP2       -0.2867
      5  CB         6.7190   -0.6670   12.5050 C.3     2  TRP2        0.0550
      6  CG         5.4380    0.0760   12.1420 C.ar    2  TRP2        0.0003
      7  CD1        5.4440    1.4000   11.7600 C.ar    2  TRP2        0.0946
      8  CD2        4.1720   -0.4660   12.1990 C.ar    2  TRP2        0.0152
      9  NE1        4.1720    1.7040   11.5810 N.ar    2  TRP2       -0.2442
     10  CE2        3.3800    0.6330   11.8260 C.ar    2  TRP2        0.0810
     11  CE3        3.5880   -1.6930   12.5120 C.ar    2  TRP2        0.0012
     12  CZ2        1.9950    0.5060   11.7670 C.ar    2  TRP2        0.0191
     13  CZ3        2.1990   -1.8210   12.4510 C.ar    2  TRP2        0.0001
     14  CH2        1.4080   -0.7260   12.0810 C.ar    2  TRP2        0.0015
     15  N         -3.5310    0.3530    3.5630 N.3    59  ASN59      -0.1240
     16  CA        -2.4290    1.2160    3.9760 C.3    59  ASN59       0.1653
     17  C         -1.1160    0.4970    4.2700 C.2    59  ASN59       0.2266
     18  O         -0.2040    1.0960    4.8360 O.2    59  ASN59      -0.2867
     19  CB        -2.8450    2.0150    5.2040 C.3    59  ASN59       0.1155
     20  CG        -3.1120    1.1940    6.4600 C.2    59  ASN59       0.2627
     21  OD1       -2.7600    0.0240    6.6070 O.2    59  ASN59      -0.2716
     22  ND2       -3.7840    1.7710    7.4280 N.am   59  ASN59      -0.0877
     23  N         -0.8710   -2.0130    6.3090 N.3    61  HIS61      -0.1241
     24  CA        -1.0160   -2.6050    7.6380 C.3    61  HIS61       0.1621
     25  C         -2.3620   -3.2920    7.8120 C.2    61  HIS61       0.2264
     26  O         -2.4650   -4.3350    8.4490 O.2    61  HIS61      -0.2867
     27  CB        -0.8530   -1.5210    8.6900 C.3    61  HIS61       0.0745
     28  CG         0.5510   -0.9600    8.6670 C.ar   61  HIS61       0.0817
     29  ND1        1.6860   -1.6230    8.8660 N.ar   61  HIS61      -0.2268
     30  CD2        0.8730    0.3530    8.4180 C.ar   61  HIS61       0.1154
     31  CE1        2.6840   -0.7770    8.7480 C.ar   61  HIS61       0.1986
     32  NE2        2.1810    0.4040    8.4810 N.ar   61  HIS61      -0.2212
     33  N        -13.9810    8.3260   12.8260 N.3    88  ILE88      -0.1231
     34  CA       -13.1880    8.7760   11.7130 C.3    88  ILE88       0.1692
     35  C        -12.9070    7.5780   10.8200 C.2    88  ILE88       0.2591
     36  O        -12.8540    7.7660    9.6130 O.2    88  ILE88      -0.2718
     37  CB       -11.9070    9.4600   12.2720 C.3    88  ILE88       0.0266
     38  CG1      -11.0500    9.8960   11.0900 C.3    88  ILE88       0.0019
     39  CG2      -11.1270    8.5700   13.2260 C.3    88  ILE88       0.0020
     40  CD1       -9.7480   10.6320   11.4700 C.3    88  ILE88       0.0001
     41  N        -12.7780    6.3310   11.2860 N.am   89  GLN89      -0.1979
     42  CA       -12.4790    5.1870   10.4300 C.3    89  GLN89       0.1601
     43  C        -12.7370    3.8810   11.1590 C.2    89  GLN89       0.2287
     44  O        -12.9670    3.9130   12.3790 O.2    89  GLN89      -0.2864
     45  CB       -10.9980    5.1950    9.9690 C.3    89  GLN89       0.0394
     46  CG        -9.9010    5.2480   11.0270 C.3    89  GLN89       0.0908
     47  CD        -9.0180    4.0220   11.1000 C.2    89  GLN89       0.2608
     48  OE1       -9.4200    2.8870   10.9170 O.2    89  GLN89      -0.2717
     49  NE2       -7.7520    4.1520   11.3860 N.am   89  GLN89      -0.0878
     50  N        -11.2000   -0.3990   10.9810 N.3    91  HIS91      -0.1241
     51  CA       -10.2900   -1.3690   10.3970 C.3    91  HIS91       0.1621
     52  C        -10.4190   -2.6370   11.2080 C.2    91  HIS91       0.2264
     53  O        -11.1430   -2.6790   12.2110 O.2    91  HIS91      -0.2867
     54  CB        -8.8450   -0.9630   10.4840 C.3    91  HIS91       0.0745
     55  CG        -8.3880   -0.5190   11.8690 C.ar   91  HIS91       0.0817
     56  ND1       -8.6040    0.6590   12.4470 N.ar   91  HIS91      -0.2268
     57  CD2       -7.6510   -1.2820   12.7310 C.ar   91  HIS91       0.1154
     58  CE1       -8.0270    0.6320   13.6100 C.ar   91  HIS91       0.1986
     59  NE2       -7.4490   -0.5400   13.7830 N.ar   91  HIS91      -0.2212
     60  N         -8.0930   -6.3870   12.4020 N.3    93  HIS93      -0.1241
     61  CA        -6.8410   -7.1200   12.5630 C.3    93  HIS93       0.1621
     62  C         -7.3320   -8.5490   12.5270 C.2    93  HIS93       0.2264
     63  O         -8.4040   -8.8320   13.1050 O.2    93  HIS93      -0.2867
     64  CB        -6.1620   -6.8930   13.9080 C.3    93  HIS93       0.0745
     65  CG        -5.9300   -5.4310   14.2110 C.ar   93  HIS93       0.0817
     66  ND1       -4.7980   -4.7700   14.1610 N.ar   93  HIS93      -0.2268
     67  CD2       -6.9070   -4.5610   14.6050 C.ar   93  HIS93       0.1154
     68  CE1       -5.0420   -3.5250   14.5130 C.ar   93  HIS93       0.1986
     69  NE2       -6.3210   -3.4150   14.7810 N.ar   93  HIS93      -0.2212
     70  N        -12.0750   -2.4970   14.9760 N.3   116  HIS116     -0.1241
     71  CA       -11.8390   -1.3160   15.7360 C.3   116  HIS116      0.1621
     72  C        -12.5220   -0.1290   15.0840 C.2   116  HIS116      0.2264
     73  O        -12.1850    0.2290   13.9550 O.2   116  HIS116     -0.2867
     74  CB       -10.3350   -1.1190   15.8120 C.3   116  HIS116      0.0745
     75  CG        -9.5820   -2.1390   16.6360 C.ar  116  HIS116      0.0817
     76  ND1       -8.2930   -2.4030   16.5500 N.ar  116  HIS116     -0.2268
     77  CD2      -10.1070   -2.8640   17.6720 C.ar  116  HIS116      0.1154
     78  CE1       -8.0010   -3.2490   17.5100 C.ar  116  HIS116      0.1986
     79  NE2       -9.0950   -3.5140   18.1620 N.ar  116  HIS116     -0.2212
     80  N        -12.6500    3.5660   15.3210 N.3   118  VAL118     -0.1245
     81  CA       -11.8570    4.5830   15.9610 C.3   118  VAL118      0.1561
     82  C        -12.6130    5.9070   16.0440 C.2   118  VAL118      0.2260
     83  O        -13.2300    6.3600   15.0570 O.2   118  VAL118     -0.2867
     84  CB       -10.5330    4.6830   15.1630 C.3   118  VAL118      0.0252
     85  CG1       -9.6080    5.7550   15.7450 C.3   118  VAL118      0.0019
     86  CG2       -9.8220    3.3540   15.2270 C.3   118  VAL118      0.0019
     87  N         -8.7320   15.5260   15.1060 N.3   127  PHE127     -0.1227
     88  CA        -8.0530   14.2780   15.3810 C.3   127  PHE127      0.1736
     89  C         -6.6040   14.4200   15.8360 C.2   127  PHE127      0.2596
     90  O         -6.1430   13.8220   16.8130 O.2   127  PHE127     -0.2718
     91  CB        -8.1260   13.4290   14.1200 C.3   127  PHE127      0.0547
     92  CG        -7.5270   12.0500   14.3280 C.ar  127  PHE127     -0.0202
     93  CD1       -8.2940   11.0610   14.9440 C.ar  127  PHE127     -0.0042
     94  CD2       -6.1940   11.8050   13.9730 C.ar  127  PHE127     -0.0042
     95  CE1       -7.7140    9.8250   15.2220 C.ar  127  PHE127     -0.0003
     96  CE2       -5.6230   10.5680   14.2650 C.ar  127  PHE127     -0.0003
     97  CZ        -6.3840    9.5860   14.8880 C.ar  127  PHE127     -0.0000
     98  N         -5.8740   15.2700   15.1250 N.am  128  GLY128     -0.1957
     99  CA        -4.4440   15.4270   15.3730 C.3   128  GLY128      0.1869
    100  C         -4.1610   16.0510   16.7260 C.2   128  GLY128      0.2309
    101  O         -3.0530   15.9140   17.2130 O.2   128  GLY128     -0.2863
    102  N         -4.9240   13.1610   19.6460 N.3   131  VAL131     -0.1245
    103  CA        -3.8550   12.2030   19.9110 C.3   131  VAL131      0.1561
    104  C         -2.7310   12.7740   20.7540 C.2   131  VAL131      0.2260
    105  O         -1.6390   12.2110   20.8770 O.2   131  VAL131     -0.2867
    106  CB        -3.2820   11.6370   18.5750 C.3   131  VAL131      0.0252
    107  CG1       -4.4280   10.9610   17.8390 C.3   131  VAL131      0.0019
    108  CG2       -2.6350   12.6960   17.7270 C.3   131  VAL131      0.0019
    109  N         -8.9610    9.5840   22.4490 N.3   137  LEU137     -0.1245
    110  CA        -9.6400    8.6980   21.5040 C.3   137  LEU137      0.1561
    111  C        -10.4430    7.6600   22.2330 C.2   137  LEU137      0.2260
    112  O        -10.0580    7.3490   23.3620 O.2   137  LEU137     -0.2867
    113  CB        -8.6510    7.9370   20.6110 C.3   137  LEU137      0.0270
    114  CG        -7.5560    8.7010   19.8710 C.3   137  LEU137      0.0019
    115  CD1       -6.5450    7.7090   19.3110 C.3   137  LEU137      0.0001
    116  CD2       -8.1750    9.5600   18.7910 C.3   137  LEU137      0.0001
    117  N        -11.9290    3.7670   21.1660 N.3   139  VAL139     -0.1245
    118  CA       -12.0240    2.7920   20.1120 C.3   139  VAL139      0.1561
    119  C        -13.0190    1.7720   20.6350 C.2   139  VAL139      0.2260
    120  O        -12.9500    1.3440   21.7930 O.2   139  VAL139     -0.2867
    121  CB       -10.6440    2.1560   19.8420 C.3   139  VAL139      0.0252
    122  CG1      -10.8130    1.1610   18.6960 C.3   139  VAL139      0.0019
    123  CG2       -9.6010    3.1780   19.4060 C.3   139  VAL139      0.0019
    124  N         -3.1030    2.8940   21.4730 N.3   194  LEU194     -0.1231
    125  CA        -3.2100    2.4090   20.1070 C.3   194  LEU194      0.1693
    126  C         -2.4690    1.0710   20.0840 C.2   194  LEU194      0.2593
    127  O         -1.4540    0.9130   20.7850 O.2   194  LEU194     -0.2718
    128  CB        -2.5060    3.3420   19.1310 C.3   194  LEU194      0.0284
    129  CG        -3.0100    4.7480   19.0560 C.3   194  LEU194      0.0019
    130  CD1       -2.1240    5.5310   18.1540 C.3   194  LEU194      0.0001
    131  CD2       -4.4240    4.7580   18.5340 C.3   194  LEU194      0.0001
    132  N         -2.8870    0.0880   19.3160 N.am  195  THR195     -0.1939
    133  CA        -2.1300   -1.1470   19.3090 C.3   195  THR195      0.2028
    134  C         -1.1320   -1.1920   18.1660 C.2   195  THR195      0.2643
    135  O         -0.4380   -2.1930   17.9980 O.2   195  THR195     -0.2714
    136  CB        -3.1210   -2.2830   19.2290 C.3   195  THR195      0.1808
    137  OG1       -3.8180   -2.0140   18.0300 O.3   195  THR195     -0.2208
    138  CG2       -4.1470   -2.3750   20.3540 C.3   195  THR195      0.0379
    139  N         -1.0940   -0.1910   17.2720 N.am  196  THR196     -0.1937
    140  CA        -0.0630   -0.1280   16.2450 C.3   196  THR196      0.2013
    141  C          0.7870    1.0940   16.6030 C.2   196  THR196      0.2484
    142  O          0.3470    1.9280   17.4300 O.2   196  THR196     -0.2729
    143  CB        -0.6440    0.0470   14.8080 C.3   196  THR196      0.1807
    144  OG1       -1.1450    1.3610   14.6930 O.3   196  THR196     -0.2208
    145  CG2       -1.7690   -0.9090   14.5050 C.3   196  THR196      0.0379
    146  N          2.0070    1.3110   16.0910 N.am  197  PRO197     -0.2715
    147  CA         2.6640    2.5940   16.1900 C.3   197  PRO197      0.1521
    148  C          1.7400    3.7320   15.7870 C.2   197  PRO197      0.2440
    149  O          0.8090    3.5310   15.0040 O.2   197  PRO197     -0.2731
    150  CB         3.8730    2.4170   15.3330 C.3   197  PRO197      0.0310
    151  CG         4.2760    1.0520   15.7700 C.3   197  PRO197      0.0237
    152  CD         2.9390    0.3110   15.6020 C.3   197  PRO197      0.0939
    153  N          1.9010    4.9400   16.3480 N.am  198  PRO198     -0.2727
    154  CA         2.9110    5.2530   17.3610 C.3   198  PRO198      0.1402
    155  C          2.6630    4.7760   18.7860 C.2   198  PRO198      0.2269
    156  O          3.3720    5.2310   19.6760 O.2   198  PRO198     -0.2865
    157  CB         3.0500    6.7600   17.2370 C.3   198  PRO198      0.0296
    158  CG         1.6720    7.2320   16.8040 C.3   198  PRO198      0.0237
    159  CD         1.2290    6.1390   15.8350 C.3   198  PRO198      0.0939
    160  N          0.4610    5.3660   21.0960 N.3   200  LEU200     -0.1245
    161  CA         0.1250    6.4630   21.9860 C.3   200  LEU200      0.1561
    162  C         -0.8800    6.0790   23.0480 C.2   200  LEU200      0.2260
    163  O         -1.8750    5.3980   22.7630 O.2   200  LEU200     -0.2867
    164  CB        -0.4450    7.6120   21.2070 C.3   200  LEU200      0.0270
    165  CG         0.3490    8.1030   20.0220 C.3   200  LEU200      0.0019
    166  CD1       -0.4830    9.1620   19.3380 C.3   200  LEU200      0.0001
    167  CD2        1.7010    8.6390   20.4380 C.3   200  LEU200      0.0001
    168  N        -10.7110    2.2590   25.8630 N.3   205  TRP205     -0.1241
    169  CA       -11.0920    1.0950   25.1190 C.3   205  TRP205      0.1605
    170  C        -12.4230    0.5700   25.5790 C.2   205  TRP205      0.2264
    171  O        -12.5540    0.3090   26.7710 O.2   205  TRP205     -0.2867
    172  CB       -10.0450    0.0560   25.3070 C.3   205  TRP205      0.0550
    173  CG        -8.9620    0.1440   24.2580 C.ar  205  TRP205      0.0003
    174  CD1       -7.7520    0.7590   24.4560 C.ar  205  TRP205      0.0946
    175  CD2       -9.1100   -0.3950   23.0100 C.ar  205  TRP205      0.0152
    176  NE1       -7.1280    0.6120   23.3090 N.ar  205  TRP205     -0.2442
    177  CE2       -7.8850   -0.0680   22.4210 C.ar  205  TRP205      0.0810
    178  CE3      -10.1070   -1.0980   22.3140 C.ar  205  TRP205      0.0012
    179  CZ2       -7.6490   -0.4560   21.1010 C.ar  205  TRP205      0.0191
    180  CZ3       -9.8680   -1.4770   20.9960 C.ar  205  TRP205      0.0001
    181  CH2       -8.6440   -1.1520   20.4080 C.ar  205  TRP205      0.0015
@<TRIPOS>BOND
     1    15    16    1
     2    16    17    1
     3    16    19    1
     4    17    18    2
     5    19    20    1
     6    23    24    1
     7    20    21    2
     8    20    22   am
     9    24    25    1
    10    24    27    1
    11    25    26    2
    12    30    32   ar
    13    30    28   ar
    14    32    31   ar
    15    28    27    1
    16    28    29   ar
    17    31    29   ar
    18     4     3    2
    19    36    35    2
    20    45    42    1
    21    45    46    1
    22    51    54    1
    23    51    50    1
    24    51    52    1
    25    42    43    1
    26    42    41    1
    27    54    55    1
    28     3     2    1
    29     1     2    1
    30    35    41   am
    31    35    34    1
    32    48    47    2
    33    46    47    1
    34    38    40    1
    35    38    37    1
    36    47    49   am
    37    43    44    2
    38    52    53    2
    39     2     5    1
    40     9     7   ar
    41     9    10   ar
    42    34    37    1
    43    34    33    1
    44     7     6   ar
    45    12    10   ar
    46    12    14   ar
    47    10     8   ar
    48    55    56   ar
    49    55    57   ar
    50    14    13   ar
    51     6     8   ar
    52     6     5    1
    53     8    11   ar
    54    37    39    1
    55    60    61    1
    56    56    58   ar
    57    13    11   ar
    58    62    61    1
    59    62    63    2
    60    61    64    1
    61    57    59   ar
    62    58    59   ar
    63    64    65    1
    64    73    72    2
    65    94    96   ar
    66    94    92   ar
    67    91    92    1
    68    91    88    1
    69    66    65   ar
    70    66    68   ar
    71    65    67   ar
    72    96    97   ar
    73    92    93   ar
    74   145   143    1
    75    68    69   ar
    76    67    69   ar
    77   144   143    1
    78   143   140    1
    79    97    95   ar
    80    93    95   ar
    81    70    71    1
    82   149   148    2
    83    83    82    2
    84    72    71    1
    85    87    88    1
    86    98    99    1
    87    98    89   am
    88    84    86    1
    89    84    85    1
    90    84    81    1
    91    80    81    1
    92   150   151    1
    93   150   147    1
    94    99   100    1
    95    88    89    1
    96   152   151    1
    97   152   146    1
    98    71    74    1
    99   148   147    1
   100   148   153   am
   101    74    75    1
   102   159   153    1
   103   159   158    1
   104    89    90    2
   105    81    82    1
   106   146   147    1
   107   146   141   am
   108   140   141    1
   109   140   139    1
   110   153   154    1
   111    76    75   ar
   112    76    78   ar
   113   141   142    2
   114    75    77   ar
   115   100   101    2
   116   158   157    1
   117   157   154    1
   118   139   134   am
   119   154   155    1
   120    78    79   ar
   121    77    79   ar
   122   108   106    1
   123   107   106    1
   124   135   134    2
   125   137   136    1
   126   130   129    1
   127   134   133    1
   128   131   129    1
   129   106   103    1
   130   122   121    1
   131   155   156    2
   132   116   114    1
   133   129   128    1
   134   128   125    1
   135   136   133    1
   136   136   138    1
   137   133   132    1
   138   115   114    1
   139   132   126   am
   140   166   165    1
   141   123   121    1
   142   102   103    1
   143   121   118    1
   144   114   113    1
   145   103   104    1
   146   165   167    1
   147   165   164    1
   148   126   125    1
   149   126   127    2
   150   125   124    1
   151   118   119    1
   152   118   117    1
   153   181   180   ar
   154   181   179   ar
   155   113   110    1
   156   119   120    2
   157   104   105    2
   158   180   178   ar
   159   160   161    1
   160   179   177   ar
   161   164   161    1
   162   110   111    1
   163   110   109    1
   164   161   162    1
   165   111   112    2
   166   178   175   ar
   167   177   175   ar
   168   177   176   ar
   169   163   162    2
   170   175   173   ar
   171   176   174   ar
   172   173   174   ar
   173   173   172    1
   174   169   172    1
   175   169   170    1
   176   169   168    1
   177   170   171    2
