@<TRIPOS>MOLECULE
tmp/1a46B01.pdb
 196 194 0 0 0
SMALL
GASTEIGER

@<TRIPOS>ATOM
      1  N         12.4500   -8.8840    6.8350 N.3    26  LEU26      -0.1231
      2  CA        12.4970   -8.0730    8.0460 C.3    26  LEU26       0.1693
      3  C         13.5610   -8.7510    8.9300 C.2    26  LEU26       0.2592
      4  O         13.3230   -9.9490    9.1170 O.2    26  LEU26      -0.2718
      5  CB        11.1430   -8.1360    8.7620 C.3    26  LEU26       0.0284
      6  CG        11.0170   -7.7970   10.2290 C.3    26  LEU26       0.0019
      7  CD1       11.0180   -6.2990   10.4870 C.3    26  LEU26       0.0001
      8  CD2        9.6990   -8.3540   10.7820 C.3    26  LEU26       0.0001
      9  N         14.5170   -8.0020    9.3650 N.am   27  LEU27      -0.1966
     10  CA        15.5980   -8.3280   10.2700 C.3    27  LEU27       0.1728
     11  C         15.2670   -8.0480   11.7390 C.2    27  LEU27       0.2616
     12  O         15.2500   -8.9430   12.6020 O.2    27  LEU27      -0.2715
     13  CB        16.8160   -7.4940    9.8330 C.3    27  LEU27       0.0311
     14  CG        18.0370   -8.2750    9.4330 C.3    27  LEU27       0.0022
     15  CD1       17.6430   -9.4250    8.4680 C.3    27  LEU27       0.0001
     16  CD2       19.0330   -7.3390    8.7440 C.3    27  LEU27       0.0001
     17  N         14.7580   -6.8460   12.0160 N.am   28  CYS28      -0.1968
     18  CA        14.4750   -6.3750   13.3760 C.3    28  CYS28       0.1712
     19  C         13.6580   -5.0640   13.3300 C.2    28  CYS28       0.2296
     20  O         13.5930   -4.4520   12.2570 O.2    28  CYS28      -0.2864
     21  CB        15.8750   -5.9800   14.0070 C.3    28  CYS28       0.0983
     22  SG        16.7300   -7.4100   14.8490 S.3    28  CYS28      -0.0798
     23  N         22.5550   -6.9780   18.8500 N.3    43  HIS43      -0.1241
     24  CA        22.5310   -8.3960   18.3670 C.3    43  HIS43       0.1621
     25  C         21.7420   -8.5790   17.0600 C.2    43  HIS43       0.2264
     26  O         21.7130   -9.6880   16.4530 O.2    43  HIS43      -0.2867
     27  CB        21.9800   -9.3120   19.4710 C.3    43  HIS43       0.0745
     28  CG        20.5040   -9.3420   19.5310 C.ar   43  HIS43       0.0817
     29  ND1       19.7110   -8.6480   20.4410 N.ar   43  HIS43      -0.2268
     30  CD2       19.6330  -10.0650   18.7580 C.ar   43  HIS43       0.1154
     31  CE1       18.4200   -8.9080   20.2020 C.ar   43  HIS43       0.1986
     32  NE2       18.3570   -9.7330   19.1770 N.ar   43  HIS43      -0.2212
     33  N         25.9570  -11.2670   15.8370 N.3    47  TYR47      -0.1241
     34  CA        25.6730  -12.4180   16.7270 C.3    47  TYR47       0.1605
     35  C         26.3400  -13.6890   16.1320 C.2    47  TYR47       0.2264
     36  O         25.6990  -14.4670   15.4110 O.2    47  TYR47      -0.2867
     37  CB        24.1580  -12.5080   16.8680 C.3    47  TYR47       0.0534
     38  CG        23.7200  -13.3990   17.9870 C.ar   47  TYR47      -0.0201
     39  CD1       24.2490  -13.0830   19.2600 C.ar   47  TYR47      -0.0009
     40  CD2       23.0970  -14.6140   17.8010 C.ar   47  TYR47      -0.0009
     41  CE1       24.0020  -13.8720   20.3720 C.ar   47  TYR47       0.0417
     42  CE2       22.8130  -15.4290   18.9300 C.ar   47  TYR47       0.0417
     43  CZ        23.3140  -15.0830   20.1680 C.ar   47  TYR47       0.1957
     44  OH        23.0660  -15.8710   21.2770 O.3    47  TYR47      -0.2866
     45  N         25.1800  -17.5030   15.5710 N.3    50  TRP50      -0.1241
     46  CA        24.2010  -17.7740   14.5040 C.3    50  TRP50       0.1605
     47  C         24.7700  -17.2570   13.1720 C.2    50  TRP50       0.2264
     48  O         23.9390  -17.0820   12.2770 O.2    50  TRP50      -0.2867
     49  CB        22.8440  -17.1100   14.6810 C.3    50  TRP50       0.0550
     50  CG        22.0740  -17.5410   15.8760 C.ar   50  TRP50       0.0003
     51  CD1       22.2430  -18.6510   16.6700 C.ar   50  TRP50       0.0946
     52  CD2       20.9490  -16.8230   16.4220 C.ar   50  TRP50       0.0152
     53  NE1       21.2520  -18.7110   17.6410 N.ar   50  TRP50      -0.2442
     54  CE2       20.4580  -17.5930   17.5030 C.ar   50  TRP50       0.0810
     55  CE3       20.3500  -15.6200   16.0750 C.ar   50  TRP50       0.0012
     56  CZ2       19.3780  -17.1750   18.2630 C.ar   50  TRP50       0.0191
     57  CZ3       19.2450  -15.2240   16.7800 C.ar   50  TRP50       0.0001
     58  CH2       18.7860  -15.9810   17.8820 C.ar   50  TRP50       0.0015
     59  N         25.6840  -14.3890   12.4410 N.3    52  LYS52      -0.1245
     60  CA        25.1060  -13.0830   11.9870 C.3    52  LYS52       0.1561
     61  C         26.1180  -11.9740   12.0510 C.2    52  LYS52       0.2260
     62  O         26.7070  -11.7500   13.1390 O.2    52  LYS52      -0.2867
     63  CB        23.8810  -12.7670   12.8190 C.3    52  LYS52       0.0271
     64  CG        23.0220  -11.6950   12.1110 C.3    52  LYS52       0.0035
     65  CD        22.0480  -11.0610   13.0630 C.3    52  LYS52       0.0206
     66  CE        20.7330  -11.7250   13.3060 C.3    52  LYS52       0.1093
     67  NZ        20.1590  -11.2740   14.6740 N.3    52  LYS52      -0.1314
     68  N         27.8810  -14.1270   26.5050 N.3    94  GLU94      -0.1231
     69  CA        27.1530  -14.6920   27.6170 C.3    94  GLU94       0.1699
     70  C         25.7340  -14.2320   27.7460 C.2    94  GLU94       0.2592
     71  O         24.8030  -15.1150   27.5820 O.2    94  GLU94      -0.2718
     72  CB        27.9610  -14.4260   28.8980 C.3    94  GLU94       0.0402
     73  CG        27.4000  -14.8840   30.2540 C.3    94  GLU94       0.1161
     74  CD        28.0570  -14.0800   31.3840 C.2    94  GLU94       0.3649
     75  OE1       29.0760  -13.3730   31.1020 O.co2  94  GLU94      -0.2457
     76  OE2       27.5210  -14.1930   32.5230 O.co2  94  GLU94      -0.2457
     77  N         25.4440  -12.9400   27.9720 N.am   95  ASN95      -0.1960
     78  CA        24.0500  -12.5440   28.2720 C.3    95  ASN95       0.1819
     79  C         23.4810  -11.3740   27.5110 C.2    95  ASN95       0.2621
     80  O         22.4690  -10.8350   28.0830 O.2    95  ASN95      -0.2715
     81  CB        23.9200  -12.3870   29.8390 C.3    95  ASN95       0.1195
     82  CG        24.9300  -11.3610   30.3280 C.2    95  ASN95       0.2630
     83  OD1       25.6950  -10.8680   29.4800 O.2    95  ASN95      -0.2716
     84  ND2       25.0280  -10.8550   31.5320 N.am   95  ASN95      -0.0877
     85  N         24.0350  -10.8840   26.4250 N.am   96  LEU96      -0.1977
     86  CA        23.5560   -9.7300   25.6460 C.3    96  LEU96       0.1596
     87  C         23.6180   -8.4150   26.4840 C.2    96  LEU96       0.2287
     88  O         22.6700   -7.6060   26.4250 O.2    96  LEU96      -0.2864
     89  CB        22.1200   -9.8910   25.0870 C.3    96  LEU96       0.0297
     90  CG        21.8020  -11.0740   24.2110 C.3    96  LEU96       0.0022
     91  CD1       20.4880  -11.0250   23.4660 C.3    96  LEU96       0.0001
     92  CD2       22.9760  -11.1880   23.2300 C.3    96  LEU96       0.0001
     93  N         20.0820  -17.0860   33.4430 N.3   171  ILE171     -0.1245
     94  CA        21.0110  -16.0780   32.8510 C.3   171  ILE171      0.1561
     95  C         21.4080  -15.0220   33.9150 C.2   171  ILE171      0.2260
     96  O         20.6010  -14.5910   34.7400 O.2   171  ILE171     -0.2867
     97  CB        20.2830  -15.2930   31.6420 C.3   171  ILE171      0.0252
     98  CG1       19.6070  -16.4170   30.7720 C.3   171  ILE171      0.0019
     99  CG2       21.1850  -14.4730   30.6980 C.3   171  ILE171      0.0019
    100  CD1       20.7790  -17.2020   30.1070 C.3   171  ILE171      0.0001
    101  N          3.7400   -9.9480   25.5590 N.3   191  ASP191     -0.1225
    102  CA         5.2230   -9.9760   25.5330 C.3   191  ASP191      0.1805
    103  C          5.6420   -9.6460   24.0930 C.2   191  ASP191      0.2598
    104  O          4.8310   -9.6140   23.1440 O.2   191  ASP191     -0.2718
    105  CB         5.6010  -11.4290   25.9800 C.3   191  ASP191      0.1424
    106  CG         7.0590  -11.7370   26.1720 C.2   191  ASP191      0.3668
    107  OD1        7.7710  -10.7240   26.4880 O.co2 191  ASP191     -0.2456
    108  OD2        7.5990  -12.9140   26.1330 O.co2 191  ASP191     -0.2456
    109  N          6.9190   -9.4340   23.8720 N.am  192  ALA192     -0.1966
    110  CA         7.6140   -9.2670   22.6300 C.3   192  ALA192      0.1728
    111  C          7.8120  -10.7310   22.0950 C.2   192  ALA192      0.2616
    112  O          7.7520  -11.6420   22.9210 O.2   192  ALA192     -0.2715
    113  CB         8.9860   -8.6120   22.7780 C.3   192  ALA192      0.0334
    114  N          8.1190  -10.8860   20.8340 N.am  193  CYS193     -0.1954
    115  CA         8.3040  -12.2700   20.2910 C.3   193  CYS193      0.1843
    116  C          9.2010  -12.1120   19.1000 C.2   193  CYS193      0.2625
    117  O          9.5470  -10.9380   18.7590 O.2   193  CYS193     -0.2714
    118  CB         7.0370  -13.0360   20.1370 C.3   193  CYS193      0.0997
    119  SG         7.2550  -14.8700   19.9450 S.3   193  CYS193     -0.0797
    120  N          9.6860  -13.2010   18.5570 N.am  194  GLU194     -0.1963
    121  CA        10.8250  -13.1490   17.5790 C.3   194  GLU194      0.1733
    122  C         10.4460  -12.2640   16.4400 C.2   194  GLU194      0.2617
    123  O          9.2780  -12.3610   15.9820 O.2   194  GLU194     -0.2715
    124  CB        11.3290  -14.5680   17.2880 C.3   194  GLU194      0.0429
    125  CG        12.0870  -15.3890   18.3560 C.3   194  GLU194      0.1163
    126  CD        11.5020  -15.9270   19.6050 C.2   194  GLU194      0.3649
    127  OE1       10.2770  -15.9550   19.9300 O.co2 194  GLU194     -0.2457
    128  OE2       12.2980  -16.3450   20.5460 O.co2 194  GLU194     -0.2457
    129  N         11.3270  -11.3590   16.0370 N.am  195  GLY195     -0.1940
    130  CA        11.0940  -10.3350   14.9970 C.3   195  GLY195      0.2014
    131  C         10.8750   -8.9400   15.5960 C.2   195  GLY195      0.2639
    132  O         10.9680   -7.9620   14.8350 O.2   195  GLY195     -0.2714
    133  N         10.5200   -8.8360   16.8740 N.am  196  ASP196     -0.1957
    134  CA        10.3700   -7.6160   17.6420 C.3   196  ASP196      0.1840
    135  C         11.6990   -6.9940   18.0980 C.2   196  ASP196      0.2622
    136  O         11.7240   -5.7950   18.4490 O.2   196  ASP196     -0.2715
    137  CB         9.5350   -7.8360   18.9070 C.3   196  ASP196      0.1450
    138  CG         8.0940   -8.1040   18.5150 C.2   196  ASP196      0.3671
    139  OD1        7.7350   -7.5310   17.4610 O.co2 196  ASP196     -0.2456
    140  OD2        7.3490   -8.6550   19.3640 O.co2 196  ASP196     -0.2456
    141  N         12.7500   -7.7800   18.3000 N.am  197  SER197     -0.1950
    142  CA        14.0630   -7.3130   18.7140 C.3   197  SER197      0.1924
    143  C         14.4540   -5.9590   18.1350 C.2   197  SER197      0.2314
    144  O         14.1480   -5.7410   16.9930 O.2   197  SER197     -0.2863
    145  CB        15.1560   -8.2780   18.1460 C.3   197  SER197      0.2116
    146  OG        15.2680   -9.3720   19.0020 O.3   197  SER197     -0.2180
    147  N         13.9600   -3.7310   22.9050 N.3   217  VAL217     -0.1231
    148  CA        13.6580   -5.1880   22.9280 C.3   217  VAL217      0.1692
    149  C         14.9560   -5.9690   22.7110 C.2   217  VAL217      0.2593
    150  O         15.6710   -5.8910   21.6980 O.2   217  VAL217     -0.2718
    151  CB        12.5430   -5.5220   21.9240 C.3   217  VAL217      0.0266
    152  CG1       12.2000   -7.0560   22.0440 C.3   217  VAL217      0.0020
    153  CG2       11.3160   -4.6560   22.0670 C.3   217  VAL217      0.0020
    154  N         15.2550   -6.7610   23.8040 N.am  218  SER218     -0.1938
    155  CA        16.5330   -7.5250   23.7770 C.3   218  SER218      0.2055
    156  C         16.3940   -9.0380   23.7390 C.2   218  SER218      0.2643
    157  O         16.7450   -9.6300   22.6890 O.2   218  SER218     -0.2714
    158  CB        17.4480   -7.1010   24.9440 C.3   218  SER218      0.2130
    159  OG        18.7350   -7.6160   24.7210 O.3   218  SER218     -0.2179
    160  N         15.8110   -9.6430   24.7610 N.am  219  TRP219     -0.1959
    161  CA        15.6670  -11.0930   24.8390 C.3   219  TRP219      0.1771
    162  C         14.5670  -11.6010   25.7240 C.2   219  TRP219      0.2620
    163  O         13.9810  -10.8670   26.5430 O.2   219  TRP219     -0.2715
    164  CB        17.0260  -11.7280   25.2220 C.3   219  TRP219      0.0590
    165  CG        17.5420  -11.3190   26.5370 C.ar  219  TRP219      0.0006
    166  CD1       18.4540  -10.2970   26.7680 C.ar  219  TRP219      0.0946
    167  CD2       17.4120  -12.0180   27.7970 C.ar  219  TRP219      0.0152
    168  NE1       18.7800  -10.2200   28.1070 N.ar  219  TRP219     -0.2442
    169  CE2       18.2600  -11.3400   28.7350 C.ar  219  TRP219      0.0810
    170  CE3       16.7600  -13.1840   28.1870 C.ar  219  TRP219      0.0012
    171  CZ2       18.3530  -11.7480   30.0610 C.ar  219  TRP219      0.0191
    172  CZ3       16.9080  -13.6410   29.4880 C.ar  219  TRP219      0.0001
    173  CH2       17.6980  -12.9350   30.4270 C.ar  219  TRP219      0.0015
    174  N         14.3000  -12.9120   25.5770 N.am  220  GLY220     -0.1940
    175  CA        13.2170  -13.5470   26.3920 C.3   220  GLY220      0.2014
    176  C         13.3000  -15.0880   26.1720 C.2   220  GLY220      0.2639
    177  O         13.9320  -15.5180   25.1780 O.2   220  GLY220     -0.2714
    178  N         12.7280  -15.8300   27.0730 N.am  221  GLU221     -0.1963
    179  CA        12.8070  -17.3500   26.9720 C.3   221  GLU221      0.1733
    180  C         11.4070  -17.8530   26.7050 C.2   221  GLU221      0.2617
    181  O         10.5020  -17.8890   27.5520 O.2   221  GLU221     -0.2715
    182  CB        13.4320  -17.9050   28.2260 C.3   221  GLU221      0.0429
    183  CG        14.8760  -17.4180   28.6350 C.3   221  GLU221      0.1163
    184  CD        15.1440  -17.6920   30.1240 C.2   221  GLU221      0.3649
    185  OE1       14.3360  -17.1910   30.9490 O.co2 221  GLU221     -0.2457
    186  OE2       16.0830  -18.3350   30.5350 O.co2 221  GLU221     -0.2457
    187  N         11.2470  -18.0560   25.3880 N.am  222  GLY222     -0.1940
    188  CA         9.8740  -18.2920   24.8280 C.3   222  GLY222      0.2014
    189  C          9.2550  -16.8450   24.6660 C.2   222  GLY222      0.2639
    190  O          9.9480  -15.7830   24.7340 O.2   222  GLY222     -0.2714
    191  N          7.9670  -16.8390   24.4920 N.am  223  CYS223     -0.1967
    192  CA         7.1830  -15.6090   24.3340 C.3   223  CYS223      0.1712
    193  C          5.9420  -15.7980   25.2210 C.2   223  CYS223      0.2296
    194  O          5.2750  -16.8700   25.0290 O.2   223  CYS223     -0.2864
    195  CB         6.7650  -15.3510   22.8860 C.3   223  CYS223      0.0983
    196  SG         8.0750  -15.4350   21.7180 S.3   223  CYS223     -0.0798
@<TRIPOS>BOND
     1     1     2    1
     2     2     5    1
     3     2     3    1
     4    15    14    1
     5    16    14    1
     6     5     6    1
     7     3     4    2
     8     3     9   am
     9     9    10    1
    10    14    13    1
    11    13    10    1
    12     6     7    1
    13     6     8    1
    14    10    11    1
    15    11    17   am
    16    11    12    2
    17    60    61    1
    18    60    59    1
    19    60    63    1
    20    17    18    1
    21    61    62    2
    22    64    63    1
    23    64    65    1
    24    20    19    2
    25    48    47    2
    26    65    66    1
    27    47    46    1
    28    66    67    1
    29    19    18    1
    30    18    21    1
    31    21    22    1
    32    46    49    1
    33    46    45    1
    34    49    50    1
    35   132   131    2
    36   130   131    1
    37   130   129    1
    38    36    35    2
    39   131   133   am
    40    33    34    1
    41    50    52   ar
    42    50    51   ar
    43   123   122    2
    44   129   122   am
    45    55    52   ar
    46    55    57   ar
    47    35    34    1
    48    52    54   ar
    49   122   121    1
    50    26    25    2
    51    51    53   ar
    52    34    37    1
    53    57    58   ar
    54    37    38    1
    55   133   134    1
    56   144   143    2
    57    25    24    1
    58   124   121    1
    59   124   125    1
    60   139   138   ar
    61    54    53   ar
    62    54    56   ar
    63   121   120    1
    64   134   135    1
    65   134   137    1
    66    40    38   ar
    67    40    42   ar
    68    58    56   ar
    69    38    39   ar
    70   135   141   am
    71   135   136    2
    72   143   142    1
    73   145   142    1
    74   145   146    1
    75   141   142    1
    76   125   126    1
    77    24    23    1
    78    24    27    1
    79   138   137    1
    80   138   140   ar
    81   120   116   am
    82    30    32   ar
    83    30    28   ar
    84   117   116    2
    85    42    43   ar
    86   116   115    1
    87    32    31   ar
    88    39    41   ar
    89    27    28    1
    90    28    29   ar
    91   126   127   ar
    92   126   128   ar
    93   119   118    1
    94   119   196    1
    95   118   115    1
    96    43    41   ar
    97    43    44    1
    98    31    29   ar
    99   115   114    1
   100   114   111   am
   101   150   149    2
   102   196   195    1
   103   151   152    1
   104   151   153    1
   105   151   148    1
   106   111   110    1
   107   111   112    2
   108   110   113    1
   109   110   109    1
   110   157   156    2
   111   149   148    1
   112   149   154   am
   113   195   192    1
   114   147   148    1
   115   104   103    2
   116    92    90    1
   117    91    90    1
   118   156   155    1
   119   156   160   am
   120   155   154    1
   121   155   158    1
   122   109   103   am
   123   103   102    1
   124    90    89    1
   125   192   191    1
   126   192   193    1
   127   191   189   am
   128   189   190    2
   129   189   188    1
   130   159   158    1
   131   160   161    1
   132   188   187    1
   133   161   164    1
   134   161   162    1
   135   194   193    2
   136    89    86    1
   137   177   176    2
   138   164   165    1
   139   187   180   am
   140   102   101    1
   141   102   105    1
   142   174   162   am
   143   174   175    1
   144    86    85    1
   145    86    87    1
   146   162   163    2
   147   105   106    1
   148   108   106   ar
   149   176   175    1
   150   176   178   am
   151   106   107   ar
   152    85    79   am
   153    88    87    2
   154    68    69    1
   155   165   166   ar
   156   165   167   ar
   157   180   179    1
   158   180   181    2
   159   166   168   ar
   160   179   178    1
   161   179   182    1
   162    79    80    2
   163    79    78    1
   164    71    70    2
   165    69    70    1
   166    69    72    1
   167    70    77   am
   168   167   170   ar
   169   167   169   ar
   170    77    78    1
   171   168   169   ar
   172   170   172   ar
   173   182   183    1
   174    78    81    1
   175   183   184    1
   176   169   171   ar
   177    72    73    1
   178    83    82    2
   179   172   173   ar
   180    81    82    1
   181   171   173   ar
   182   100    98    1
   183   184   186   ar
   184   184   185   ar
   185    73    74    1
   186    82    84   am
   187    99    97    1
   188    98    97    1
   189    75    74   ar
   190    74    76   ar
   191    97    94    1
   192    94    93    1
   193    94    95    1
   194    95    96    2
