@<TRIPOS>MOLECULE
tmp/1a47A01.pdb
 119 113 0 0 0
SMALL
GASTEIGER

@<TRIPOS>ATOM
      1  N         38.5440   18.8070   -0.6040 N.3   184  PHE184     -0.1241
      2  CA        39.3220   19.5600    0.3560 C.3   184  PHE184      0.1605
      3  C         39.3030   21.0660    0.1060 C.2   184  PHE184      0.2264
      4  O         40.1240   21.8030    0.6460 O.2   184  PHE184     -0.2867
      5  CB        40.7580   19.0150    0.4830 C.3   184  PHE184      0.0534
      6  CG        40.8330   17.5140    0.7320 C.ar  184  PHE184     -0.0203
      7  CD1       40.8390   16.6170   -0.3350 C.ar  184  PHE184     -0.0042
      8  CD2       40.8430   16.9950    2.0270 C.ar  184  PHE184     -0.0042
      9  CE1       41.0050   15.2390   -0.1220 C.ar  184  PHE184     -0.0003
     10  CE2       40.9290   15.6230    2.2600 C.ar  184  PHE184     -0.0003
     11  CZ        40.9630   14.7450    1.1810 C.ar  184  PHE184     -0.0000
     12  N         35.0240   11.0900    2.2700 N.3   195  LEU195     -0.1231
     13  CA        36.4690   11.0570    2.3480 C.3   195  LEU195      0.1693
     14  C         36.9000    9.9600    1.3940 C.2   195  LEU195      0.2592
     15  O         36.8920    8.7790    1.7470 O.2   195  LEU195     -0.2718
     16  CB        36.9370   10.7000    3.7780 C.3   195  LEU195      0.0284
     17  CG        38.3250   11.2250    4.1300 C.3   195  LEU195      0.0019
     18  CD1       39.0170   10.2860    5.1150 C.3   195  LEU195      0.0001
     19  CD2       39.1680   11.3810    2.8740 C.3   195  LEU195      0.0001
     20  N         37.1830   10.3480    0.1580 N.am  196  PHE196     -0.1976
     21  CA        37.5130    9.3950   -0.8910 C.3   196  PHE196      0.1639
     22  C         36.2240    8.7400   -1.3690 C.2   196  PHE196      0.2290
     23  O         35.2970    9.4220   -1.7980 O.2   196  PHE196     -0.2864
     24  CB        38.5780    8.3760   -0.4450 C.3   196  PHE196      0.0560
     25  CG        39.8670    9.0440    0.0150 C.ar  196  PHE196     -0.0200
     26  CD1       40.4680   10.0260   -0.7750 C.ar  196  PHE196     -0.0042
     27  CD2       40.4850    8.6880    1.2190 C.ar  196  PHE196     -0.0042
     28  CE1       41.6580   10.6430   -0.3890 C.ar  196  PHE196     -0.0003
     29  CE2       41.6790    9.2910    1.6230 C.ar  196  PHE196     -0.0003
     30  CZ        42.2600   10.2670    0.8110 C.ar  196  PHE196     -0.0000
     31  N         39.9960    8.7830   14.3200 N.3   230  ASP230     -0.1225
     32  CA        40.3280    8.9050   12.9250 C.3   230  ASP230      0.1805
     33  C         39.6520   10.0850   12.2390 C.2   230  ASP230      0.2597
     34  O         38.5030   10.4150   12.5240 O.2   230  ASP230     -0.2718
     35  CB        40.0010    7.6030   12.1840 C.3   230  ASP230      0.1424
     36  CG        40.5930    7.5660   10.8180 C.2   230  ASP230      0.3668
     37  OD1       41.7440    7.2490   10.6130 O.co2 230  ASP230     -0.2456
     38  OD2       39.7390    7.8790    9.8760 O.co2 230  ASP230     -0.2456
     39  N         40.3900   10.6970   11.3080 N.am  231  ALA231     -0.1979
     40  CA        39.9180   11.8110   10.4930 C.3   231  ALA231      0.1597
     41  C         39.0520   12.8270   11.2250 C.2   231  ALA231      0.2287
     42  O         37.9940   13.2170   10.7350 O.2   231  ALA231     -0.2864
     43  CB        39.2160   11.3020    9.2440 C.3   231  ALA231      0.0319
     44  N         39.2570   15.6270   11.2750 N.3   233  LYS233     -0.1231
     45  CA        39.1850   16.7730   10.3930 C.3   233  LYS233      0.1693
     46  C         38.0090   16.6670    9.4310 C.2   233  LYS233      0.2592
     47  O         37.6690   17.6170    8.7310 O.2   233  LYS233     -0.2718
     48  CB        40.5030   16.9180    9.6430 C.3   233  LYS233      0.0285
     49  CG        40.4370   17.7530    8.3770 C.3   233  LYS233      0.0035
     50  CD        41.6940   17.6010    7.5290 C.3   233  LYS233      0.0206
     51  CE        41.8420   18.6730    6.4630 C.3   233  LYS233      0.1093
     52  NZ        43.2270   18.8090    5.9800 N.3   233  LYS233     -0.1314
     53  N         37.3970   15.4850    9.4040 N.am  234  HIS234     -0.1976
     54  CA        36.2910   15.2080    8.5110 C.3   234  HIS234      0.1656
     55  C         34.9310   15.0580    9.1830 C.2   234  HIS234      0.2291
     56  O         33.9700   14.6010    8.5670 O.2   234  HIS234     -0.2864
     57  CB        36.6120   14.0410    7.5650 C.3   234  HIS234      0.0771
     58  CG        37.8600   14.2960    6.7780 C.ar  234  HIS234      0.0820
     59  ND1       37.9200   15.3020    5.8260 N.ar  234  HIS234     -0.2267
     60  CD2       39.0720   13.6800    6.8150 C.ar  234  HIS234      0.1154
     61  CE1       39.1430   15.2780    5.3140 C.ar  234  HIS234      0.1986
     62  NE2       39.8600   14.3150    5.8850 N.ar  234  HIS234     -0.2212
     63  N         43.2280   12.6270   14.7080 N.3   258  GLU258     -0.1245
     64  CA        44.1030   12.7950   13.5680 C.3   258  GLU258      0.1567
     65  C         43.6570   13.9170   12.6410 C.2   258  GLU258      0.2260
     66  O         42.7400   13.7530   11.8410 O.2   258  GLU258     -0.2867
     67  CB        44.2840   11.5060   12.7670 C.3   258  GLU258      0.0388
     68  CG        45.3680   11.6530   11.6880 C.3   258  GLU258      0.1160
     69  CD        44.8740   11.2640   10.3290 C.2   258  GLU258      0.3649
     70  OE1       43.7390   10.8840   10.1210 O.co2 258  GLU258     -0.2457
     71  OE2       45.7550   11.4720    9.3870 O.co2 258  GLU258     -0.2457
     72  N         45.2250   15.8890    9.8360 N.3   260  PHE260     -0.1241
     73  CA        46.3030   15.9800    8.8690 C.3   260  PHE260      0.1605
     74  C         46.7060   17.3960    8.4750 C.2   260  PHE260      0.2264
     75  O         45.8950   18.1840    7.9910 O.2   260  PHE260     -0.2867
     76  CB        46.0130   15.1250    7.6210 C.3   260  PHE260      0.0534
     77  CG        47.2610   14.5620    6.9850 C.ar  260  PHE260     -0.0203
     78  CD1       48.0460   15.3360    6.1290 C.ar  260  PHE260     -0.0042
     79  CD2       47.6540   13.2470    7.2380 C.ar  260  PHE260     -0.0042
     80  CE1       49.2020   14.8210    5.5440 C.ar  260  PHE260     -0.0003
     81  CE2       48.8070   12.7120    6.6620 C.ar  260  PHE260     -0.0003
     82  CZ        49.5800   13.5050    5.8140 C.ar  260  PHE260     -0.0000
     83  N         49.8640   19.3900    6.2630 N.3   262  GLY262     -0.1210
     84  CA        50.9570   19.2370    5.3230 C.3   262  GLY262      0.1956
     85  C         52.1660   20.0620    5.7290 C.2   262  GLY262      0.2612
     86  O         52.1690   20.7090    6.7750 O.2   262  GLY262     -0.2717
     87  N         53.1930   20.0370    4.8820 N.am  263  THR263     -0.1952
     88  CA        54.4140   20.7820    5.1330 C.3   263  THR263      0.1897
     89  C         54.1470   22.2760    5.2220 C.2   263  THR263      0.2313
     90  O         53.5030   22.8590    4.3530 O.2   263  THR263     -0.2863
     91  CB        55.4980   20.4790    4.0800 C.3   263  THR263      0.1794
     92  OG1       55.6310   19.0830    3.9160 O.3   263  THR263     -0.2208
     93  CG2       56.8320   21.0750    4.5150 C.3   263  THR263      0.0378
     94  N         52.1540   23.7060    6.8070 N.3   265  GLU265     -0.1245
     95  CA        50.7390   23.9600    6.9550 C.3   265  GLU265      0.1567
     96  C         50.3130   24.2670    8.3830 C.2   265  GLU265      0.2260
     97  O         50.6210   23.5300    9.3180 O.2   265  GLU265     -0.2867
     98  CB        49.8710   22.8440    6.3470 C.3   265  GLU265      0.0388
     99  CG        48.4000   23.2710    6.1900 C.3   265  GLU265      0.1160
    100  CD        47.4680   22.1340    5.8730 C.2   265  GLU265      0.3649
    101  OE1       47.8430   21.0240    5.5500 O.co2 265  GLU265     -0.2457
    102  OE2       46.2090   22.4710    5.9800 O.co2 265  GLU265     -0.2457
    103  N         56.0030   17.1720   10.6790 N.3   288  GLN288     -0.1245
    104  CA        56.3730   17.7220    9.3840 C.3   288  GLN288      0.1566
    105  C         57.6480   18.5570    9.4130 C.2   288  GLN288      0.2260
    106  O         58.4190   18.5580    8.4550 O.2   288  GLN288     -0.2867
    107  CB        55.2140   18.4930    8.7260 C.3   288  GLN288      0.0367
    108  CG        53.9480   17.6380    8.5200 C.3   288  GLN288      0.0905
    109  CD        54.0600   16.6480    7.3730 C.2   288  GLN288      0.2608
    110  OE1       55.1600   16.3510    6.8890 O.2   288  GLN288     -0.2717
    111  NE2       52.9100   16.1680    6.9040 N.am  288  GLN288     -0.0878
    112  N         50.8730    6.5810    6.9570 N.3   329  ASP329     -0.1239
    113  CA        50.4390    7.4250    5.8540 C.3   329  ASP329      0.1674
    114  C         51.5930    8.1440    5.1750 C.2   329  ASP329      0.2266
    115  O         51.4650    8.6270    4.0530 O.2   329  ASP329     -0.2867
    116  CB        49.3560    8.4330    6.2820 C.3   329  ASP329      0.1410
    117  CG        48.0240    7.7980    6.5670 C.2   329  ASP329      0.3668
    118  OD1       47.7250    6.6730    6.2120 O.co2 329  ASP329     -0.2456
    119  OD2       47.2130    8.5950    7.2140 O.co2 329  ASP329     -0.2456
@<TRIPOS>BOND
     1    23    22    2
     2    22    21    1
     3    21    24    1
     4    21    20    1
     5    26    28   ar
     6    26    25   ar
     7     1     2    1
     8    24    25    1
     9    28    30   ar
    10     7     9   ar
    11     7     6   ar
    12     9    11   ar
    13    25    27   ar
    14     3     2    1
    15     3     4    2
    16    20    14   am
    17     2     5    1
    18     5     6    1
    19     6     8   ar
    20    30    29   ar
    21    11    10   ar
    22    27    29   ar
    23    14    15    2
    24    14    13    1
    25     8    10   ar
    26    12    13    1
    27    13    16    1
    28    19    17    1
    29    16    17    1
    30    92    91    1
    31   115   114    2
    32    91    93    1
    33    91    88    1
    34    17    18    1
    35    90    89    2
    36    87    88    1
    37    87    85   am
    38    88    89    1
    39   114   113    1
    40    61    59   ar
    41    61    62   ar
    42    84    85    1
    43    84    83    1
    44    80    82   ar
    45    80    78   ar
    46   101   100   ar
    47    85    86    2
    48    82    81   ar
    49    59    58   ar
    50   113   116    1
    51   113   112    1
    52   100   102   ar
    53   100    99    1
    54    62    60   ar
    55    52    51    1
    56    78    77   ar
    57    99    98    1
    58   118   117   ar
    59   116   117    1
    60    98    95    1
    61    51    50    1
    62   117   119   ar
    63    81    79   ar
    64    58    60   ar
    65    58    57    1
    66    94    95    1
    67   110   109    2
    68   111   109   am
    69    95    96    1
    70    77    79   ar
    71    77    76    1
    72   109   108    1
    73    50    49    1
    74    57    54    1
    75    76    73    1
    76    75    74    2
    77    49    48    1
    78    96    97    2
    79   106   105    2
    80    74    73    1
    81    54    55    1
    82    54    53    1
    83   108   107    1
    84    56    55    2
    85   107   104    1
    86    47    46    2
    87    73    72    1
    88    43    40    1
    89   104   105    1
    90   104   103    1
    91    71    69   ar
    92    53    46   am
    93    46    45    1
    94    48    45    1
    95    38    36   ar
    96    70    69   ar
    97    69    68    1
    98    45    44    1
    99    40    41    1
   100    40    39    1
   101    37    36   ar
   102    42    41    2
   103    36    35    1
   104    39    33   am
   105    68    67    1
   106    66    65    2
   107    35    32    1
   108    33    34    2
   109    33    32    1
   110    65    64    1
   111    67    64    1
   112    32    31    1
   113    64    63    1
