@<TRIPOS>MOLECULE
tmp/1a4kB00.pdb
 122 120 0 0 0
SMALL
GASTEIGER

@<TRIPOS>ATOM
      1  N         46.9740   49.9130    2.7640 N.3    30  THR30      -0.1203
      2  CA        48.0320   49.6680    1.7770 C.3    30  THR30       0.1994
      3  C         48.0160   50.6240    0.5830 C.2    30  THR30       0.2618
      4  O         48.5700   50.3160   -0.4720 O.2    30  THR30      -0.2717
      5  CB        47.9580   48.2350    1.2310 C.3    30  THR30       0.1784
      6  OG1       46.6450   48.0020    0.7050 O.3    30  THR30      -0.2211
      7  CG2       48.2640   47.2190    2.3300 C.3    30  THR30       0.0376
      8  N         47.3840   51.7790    0.7430 N.am   31  ASN31      -0.1960
      9  CA        47.3290   52.7540   -0.3360 C.3    31  ASN31       0.1819
     10  C         48.1120   53.9910    0.0290 C.2    31  ASN31       0.2621
     11  O         48.0630   55.0090   -0.6740 O.2    31  ASN31      -0.2715
     12  CB        45.8890   53.1350   -0.6310 C.3    31  ASN31       0.1195
     13  CG        45.2010   52.1060   -1.4760 C.2    31  ASN31       0.2630
     14  OD1       44.1220   51.6270   -1.1330 O.2    31  ASN31      -0.2716
     15  ND2       45.8290   51.7400   -2.5890 N.am   31  ASN31      -0.0877
     16  N         48.8390   53.8870    1.1350 N.am   32  TYR32      -0.1960
     17  CA        49.6410   54.9850    1.6440 C.3    32  TYR32       0.1771
     18  C         50.8000   54.4770    2.4740 C.2    32  TYR32       0.2620
     19  O         50.8030   53.3310    2.9280 O.2    32  TYR32      -0.2715
     20  CB        48.7960   55.8740    2.5470 C.3    32  TYR32       0.0574
     21  CG        47.6620   56.5750    1.8630 C.ar   32  TYR32      -0.0198
     22  CD1       47.8910   57.7270    1.1170 C.ar   32  TYR32      -0.0009
     23  CD2       46.3560   56.1200    2.0010 C.ar   32  TYR32      -0.0009
     24  CE1       46.8550   58.4180    0.5270 C.ar   32  TYR32       0.0417
     25  CE2       45.3030   56.8010    1.4170 C.ar   32  TYR32       0.0417
     26  CZ        45.5590   57.9540    0.6810 C.ar   32  TYR32       0.1957
     27  OH        44.5240   58.6590    0.1070 O.3    32  TYR32      -0.2866
     28  N         51.7790   55.3490    2.6750 N.am   33  GLY33      -0.1954
     29  CA        52.9090   55.0150    3.5220 C.3    33  GLY33       0.1869
     30  C         52.5880   55.6880    4.8510 C.2    33  GLY33       0.2309
     31  O         52.1060   56.8330    4.8780 O.2    33  GLY33      -0.2863
     32  N         53.6480   57.6050    7.9380 N.3    35  ASN35      -0.1240
     33  CA        54.6930   58.4740    8.4570 C.3    35  ASN35       0.1653
     34  C         54.4210   58.9600    9.8880 C.2    35  ASN35       0.2266
     35  O         53.2620   59.1110   10.3030 O.2    35  ASN35      -0.2867
     36  CB        54.8400   59.6910    7.5410 C.3    35  ASN35       0.1155
     37  CG        55.3510   59.3230    6.1730 C.2    35  ASN35       0.2627
     38  OD1       56.4710   59.6750    5.7950 O.2    35  ASN35      -0.2716
     39  ND2       54.5350   58.6000    5.4200 N.am   35  ASN35      -0.0877
     40  N         59.8520   65.3980   11.0150 N.3    47  TRP47      -0.1241
     41  CA        59.6130   64.0870   10.4240 C.3    47  TRP47       0.1605
     42  C         60.5210   63.0460   11.0920 C.2    47  TRP47       0.2264
     43  O         61.7310   63.2490   11.2200 O.2    47  TRP47      -0.2867
     44  CB        59.8710   64.1680    8.9140 C.3    47  TRP47       0.0550
     45  CG        59.4480   62.9680    8.1220 C.ar   47  TRP47       0.0003
     46  CD1       58.1780   62.6260    7.7750 C.ar   47  TRP47       0.0946
     47  CD2       60.3050   61.9600    7.5640 C.ar   47  TRP47       0.0152
     48  NE1       58.1860   61.4640    7.0350 N.ar   47  TRP47      -0.2442
     49  CE2       59.4780   61.0340    6.8920 C.ar   47  TRP47       0.0810
     50  CE3       61.6930   61.7500    7.5690 C.ar   47  TRP47       0.0012
     51  CZ2       59.9890   59.9100    6.2290 C.ar   47  TRP47       0.0191
     52  CZ3       62.2060   60.6310    6.9060 C.ar   47  TRP47       0.0001
     53  CH2       61.3510   59.7260    6.2450 C.ar   47  TRP47       0.0015
     54  N         59.1220   56.7700    8.3430 N.3    50  TRP50      -0.1241
     55  CA        57.8770   56.1190    7.9880 C.3    50  TRP50       0.1605
     56  C         58.0100   54.6080    7.8790 C.2    50  TRP50       0.2264
     57  O         59.1120   54.0640    7.9110 O.2    50  TRP50      -0.2867
     58  CB        57.3710   56.6690    6.6480 C.3    50  TRP50       0.0550
     59  CG        58.2450   56.2860    5.4620 C.ar   50  TRP50       0.0003
     60  CD1       59.5160   56.7240    5.2040 C.ar   50  TRP50       0.0946
     61  CD2       57.8970   55.4110    4.3760 C.ar   50  TRP50       0.0152
     62  NE1       59.9760   56.1820    4.0340 N.ar   50  TRP50      -0.2442
     63  CE2       59.0070   55.3730    3.5000 C.ar   50  TRP50       0.0810
     64  CE3       56.7550   54.6570    4.0570 C.ar   50  TRP50       0.0012
     65  CZ2       59.0120   54.6070    2.3180 C.ar   50  TRP50       0.0191
     66  CZ3       56.7600   53.8980    2.8850 C.ar   50  TRP50       0.0001
     67  CH2       57.8850   53.8820    2.0300 C.ar   50  TRP50       0.0015
     68  N         56.5670   51.1500    5.6210 N.3    52  ASN52      -0.1240
     69  CA        55.9440   50.5800    4.4300 C.3    52  ASN52       0.1653
     70  C         54.8380   49.6230    4.9140 C.2    52  ASN52       0.2266
     71  O         55.1140   48.6530    5.6170 O.2    52  ASN52      -0.2867
     72  CB        57.0200   49.8270    3.6420 C.3    52  ASN52       0.1155
     73  CG        56.5740   49.4390    2.2580 C.2    52  ASN52       0.2627
     74  OD1       57.2240   49.7700    1.2670 O.2    52  ASN52      -0.2716
     75  ND2       55.4610   48.7290    2.1770 N.am   52  ASN52      -0.0877
     76  N         50.8150   59.1700    3.5410 N.3    99  ALA99      -0.1231
     77  CA        51.3740   59.9290    2.4200 C.3    99  ALA99       0.1694
     78  C         51.3260   59.1370    1.1250 C.2    99  ALA99       0.2592
     79  O         51.4440   57.9070    1.1270 O.2    99  ALA99      -0.2718
     80  CB        52.8050   60.3380    2.7180 C.3    99  ALA99       0.0304
     81  N         51.1540   59.8530    0.0170 N.am  100  GLU100     -0.1966
     82  CA        51.0830   59.2360   -1.3020 C.3   100  GLU100      0.1733
     83  C         52.4400   59.3040   -1.9980 C.2   100  GLU100      0.2616
     84  O         53.0960   60.3490   -2.0120 O.2   100  GLU100     -0.2715
     85  CB        50.0160   59.9360   -2.1580 C.3   100  GLU100      0.0429
     86  CG        49.5780   59.1400   -3.3880 C.3   100  GLU100      0.1163
     87  CD        50.3990   59.4760   -4.6270 C.2   100  GLU100      0.3649
     88  OE1       50.6950   60.6720   -4.8510 O.co2 100  GLU100     -0.2457
     89  OE2       50.7540   58.5470   -5.3770 O.co2 100  GLU100     -0.2457
     90  N         52.8340   58.1740   -2.5790 N.am  101  ARG101     -0.1977
     91  CA        54.1010   58.0280   -3.2800 C.3   101  ARG101      0.1597
     92  C         54.3920   59.0390   -4.3920 C.2   101  ARG101      0.2287
     93  O         55.3300   59.8190   -4.2860 O.2   101  ARG101     -0.2864
     94  CB        54.2050   56.6160   -3.8610 C.3   101  ARG101      0.0334
     95  CG        55.6390   56.1570   -4.0960 C.3   101  ARG101      0.0492
     96  CD        55.6900   54.7110   -4.5520 C.3   101  ARG101      0.2205
     97  NE        54.9780   54.5380   -5.8140 N.pl3 101  ARG101     -0.0865
     98  CZ        55.4860   54.8620   -6.9990 C.cat 101  ARG101      0.5346
     99  NH1       56.7090   55.3740   -7.0800 N.pl3 101  ARG101      0.1354
    100  NH2       54.7690   54.6880   -8.1010 N.pl3 101  ARG101      0.1354
    101  N         54.1790   62.7060   -3.1520 N.3   104  ARG104     -0.1245
    102  CA        55.0100   62.8600   -1.9560 C.3   104  ARG104      0.1563
    103  C         54.3210   63.8320   -1.0210 C.2   104  ARG104      0.2260
    104  O         54.9550   64.7200   -0.4570 O.2   104  ARG104     -0.2867
    105  CB        56.4020   63.4040   -2.3170 C.3   104  ARG104      0.0307
    106  CG        57.3810   62.3470   -2.8050 C.3   104  ARG104      0.0489
    107  CD        58.6450   62.9680   -3.3610 C.3   104  ARG104      0.2205
    108  NE        59.5130   61.9600   -3.9670 N.pl3 104  ARG104     -0.0865
    109  CZ        60.8380   61.9470   -3.8500 C.cat 104  ARG104      0.5346
    110  NH1       61.4500   62.8900   -3.1500 N.pl3 104  ARG104      0.1354
    111  NH2       61.5520   60.9840   -4.4180 N.pl3 104  ARG104      0.1354
    112  N         51.5890   64.5910    2.3020 N.3   106  PHE106     -0.1241
    113  CA        51.1280   64.0190    3.5490 C.3   106  PHE106      0.1605
    114  C         49.6410   64.2900    3.4140 C.2   106  PHE106      0.2264
    115  O         49.1250   65.3270    3.8420 O.2   106  PHE106     -0.2867
    116  CB        51.7480   64.7500    4.7340 C.3   106  PHE106      0.0534
    117  CG        53.2300   64.5450    4.8530 C.ar  106  PHE106     -0.0203
    118  CD1       53.7680   63.2670    4.8690 C.ar  106  PHE106     -0.0042
    119  CD2       54.0930   65.6260    4.9610 C.ar  106  PHE106     -0.0042
    120  CE1       55.1510   63.0640    4.9970 C.ar  106  PHE106     -0.0003
    121  CE2       55.4770   65.4330    5.0880 C.ar  106  PHE106     -0.0003
    122  CZ        56.0020   64.1440    5.1070 C.ar  106  PHE106     -0.0000
@<TRIPOS>BOND
     1   100    98    1
     2    99    98    1
     3    98    97    2
     4    97    96    1
     5    89    87   ar
     6    88    87   ar
     7    87    86    1
     8    96    95    1
     9   111   109    1
    10    92    93    2
    11    92    91    1
    12    95    94    1
    13   108   109    2
    14   108   107    1
    15    94    91    1
    16   109   110    1
    17    86    85    1
    18   107   106    1
    19    91    90    1
    20   101   102    1
    21   106   105    1
    22    15    13   am
    23    90    83   am
    24   105   102    1
    25    85    82    1
    26    84    83    2
    27    83    82    1
    28   102   103    1
    29    13    14    2
    30    13    12    1
    31    82    81    1
    32   103   104    2
    33    11    10    2
    34    12     9    1
    35     4     3    2
    36     9    10    1
    37     9     8    1
    38    81    78   am
    39    10    16   am
    40    27    26    1
    41    24    26   ar
    42    24    22   ar
    43     3     8   am
    44     3     2    1
    45    26    25   ar
    46     6     5    1
    47    22    21   ar
    48    78    79    2
    49    78    77    1
    50    16    17    1
    51     5     2    1
    52     5     7    1
    53    74    73    2
    54    25    23   ar
    55    17    18    1
    56    17    20    1
    57     2     1    1
    58    21    23   ar
    59    21    20    1
    60    67    65   ar
    61    67    66   ar
    62    75    73   am
    63    73    72    1
    64   112   113    1
    65    65    63   ar
    66    77    80    1
    67    77    76    1
    68    18    28   am
    69    18    19    2
    70    28    29    1
    71    66    64   ar
    72   114   113    1
    73   114   115    2
    74    63    62   ar
    75    63    61   ar
    76    29    30    1
    77   113   116    1
    78    72    69    1
    79    62    60   ar
    80    64    61   ar
    81    61    59   ar
    82    69    70    1
    83    69    68    1
    84   116   117    1
    85    30    31    2
    86   117   118   ar
    87   117   119   ar
    88   118   120   ar
    89    70    71    2
    90   119   121   ar
    91   120   122   ar
    92   121   122   ar
    93    60    59   ar
    94    39    37   am
    95    59    58    1
    96    38    37    2
    97    37    36    1
    98    51    53   ar
    99    51    49   ar
   100    53    52   ar
   101    58    55    1
   102    49    48   ar
   103    49    47   ar
   104    52    50   ar
   105    48    46   ar
   106    36    33    1
   107    47    50   ar
   108    47    45   ar
   109    46    45   ar
   110    56    57    2
   111    56    55    1
   112    32    33    1
   113    55    54    1
   114    45    44    1
   115    33    34    1
   116    44    41    1
   117    34    35    2
   118    41    40    1
   119    41    42    1
   120    42    43    2
