@<TRIPOS>MOLECULE
tmp/1a4lC00.pdb
 196 186 0 0 0
SMALL
GASTEIGER

@<TRIPOS>ATOM
      1  N         80.0510   18.0610   52.4930 N.3    14  HIS14      -0.1241
      2  CA        80.1490   19.0540   53.5600 C.3    14  HIS14       0.1621
      3  C         78.8200   19.5260   54.1110 C.2    14  HIS14       0.2264
      4  O         78.0030   20.0600   53.3690 O.2    14  HIS14      -0.2867
      5  CB        80.9430   20.2660   53.0640 C.3    14  HIS14       0.0745
      6  CG        82.4040   19.9950   52.9010 C.ar   14  HIS14       0.0817
      7  ND1       83.3590   20.6310   53.6590 N.ar   14  HIS14      -0.2268
      8  CD2       83.0670   19.0780   52.1540 C.ar   14  HIS14       0.1154
      9  CE1       84.5450   20.1080   53.4080 C.ar   14  HIS14       0.1986
     10  NE2       84.3980   19.1580   52.5000 N.ar   14  HIS14      -0.2212
     11  N         78.2590   22.1190   56.0900 N.3    16  ASP16      -0.1239
     12  CA        78.1280   23.5630   55.9220 C.3    16  ASP16       0.1674
     13  C         78.0870   23.9860   54.4490 C.2    16  ASP16       0.2266
     14  O         78.0320   25.1680   54.1330 O.2    16  ASP16      -0.2867
     15  CB        79.1920   24.3460   56.7290 C.3    16  ASP16       0.1410
     16  CG        80.6260   23.8660   56.4830 C.2    16  ASP16       0.3668
     17  OD1       80.8810   23.1070   55.5250 O.co2  16  ASP16      -0.2456
     18  OD2       81.5110   24.2560   57.2690 O.co2  16  ASP16      -0.2456
     19  N         89.5470   27.4770   43.6020 N.3    55  LEU55      -0.1245
     20  CA        89.2460   26.9460   44.9150 C.3    55  LEU55       0.1561
     21  C         89.0770   28.1140   45.9000 C.2    55  LEU55       0.2260
     22  O         88.0720   28.1800   46.6150 O.2    55  LEU55      -0.2867
     23  CB        90.3310   25.9460   45.3530 C.3    55  LEU55       0.0270
     24  CG        90.2670   25.4280   46.7830 C.3    55  LEU55       0.0019
     25  CD1       88.9240   24.7460   47.0460 C.3    55  LEU55       0.0001
     26  CD2       91.4290   24.4920   47.0220 C.3    55  LEU55       0.0001
     27  N         85.7750   29.5480   45.4030 N.3    58  PHE58      -0.1227
     28  CA        84.6850   28.7270   45.9160 C.3    58  PHE58       0.1736
     29  C         84.6240   28.8550   47.4440 C.2    58  PHE58       0.2595
     30  O         83.5500   29.0210   48.0210 O.2    58  PHE58      -0.2718
     31  CB        84.8770   27.2580   45.4860 C.3    58  PHE58       0.0547
     32  CG        84.3470   26.2570   46.4800 C.ar   58  PHE58      -0.0202
     33  CD1       82.9960   25.9110   46.4930 C.ar   58  PHE58      -0.0042
     34  CD2       85.1880   25.7130   47.4480 C.ar   58  PHE58      -0.0042
     35  CE1       82.4930   25.0470   47.4630 C.ar   58  PHE58      -0.0003
     36  CE2       84.6920   24.8480   48.4190 C.ar   58  PHE58      -0.0003
     37  CZ        83.3470   24.5170   48.4280 C.ar   58  PHE58      -0.0000
     38  N         85.7870   28.7980   48.0840 N.am   59  LEU59      -0.1980
     39  CA        85.8850   28.9150   49.5390 C.3    59  LEU59       0.1596
     40  C         85.3710   30.2580   50.0570 C.2    59  LEU59       0.2287
     41  O         85.0420   30.3890   51.2360 O.2    59  LEU59      -0.2864
     42  CB        87.3400   28.7400   49.9960 C.3    59  LEU59       0.0297
     43  CG        87.9710   27.3540   50.0600 C.3    59  LEU59       0.0022
     44  CD1       89.3830   27.4780   50.5590 C.3    59  LEU59       0.0001
     45  CD2       87.1630   26.4560   50.9890 C.3    59  LEU59       0.0001
     46  N         81.2650   30.6290   51.5140 N.3    62  PHE62      -0.1241
     47  CA        80.8830   30.3610   52.8900 C.3    62  PHE62       0.1605
     48  C         80.7220   31.6320   53.7380 C.2    62  PHE62       0.2264
     49  O         79.9790   31.6290   54.7220 O.2    62  PHE62      -0.2867
     50  CB        81.9110   29.4320   53.5550 C.3    62  PHE62       0.0534
     51  CG        81.9340   28.0300   53.0030 C.ar   62  PHE62      -0.0203
     52  CD1       82.6970   27.7170   51.8820 C.ar   62  PHE62      -0.0042
     53  CD2       81.2120   27.0090   53.6290 C.ar   62  PHE62      -0.0042
     54  CE1       82.7460   26.4120   51.3900 C.ar   62  PHE62      -0.0003
     55  CE2       81.2490   25.6990   53.1480 C.ar   62  PHE62      -0.0003
     56  CZ        82.0200   25.4010   52.0250 C.ar   62  PHE62      -0.0000
     57  N         77.5540   31.5900   56.4780 N.3    66  MET66      -0.1245
     58  CA        77.9870   31.0070   57.7460 C.3    66  MET66       0.1570
     59  C         77.7050   31.8690   58.9930 C.2    66  MET66       0.2261
     60  O         77.4540   31.3260   60.0720 O.2    66  MET66      -0.2867
     61  CB        79.4520   30.5950   57.6720 C.3    66  MET66       0.0387
     62  CG        79.7000   29.3630   56.8000 C.3    66  MET66       0.0595
     63  SD        79.2320   27.8110   57.6060 S.3    66  MET66      -0.1393
     64  CE        80.5580   27.6810   58.8020 C.3    66  MET66       0.0692
     65  N         82.5150   18.4410   58.3370 N.3    99  TYR99      -0.1227
     66  CA        82.4110   19.8480   58.6840 C.3    99  TYR99       0.1736
     67  C         83.5060   20.1820   59.6990 C.2    99  TYR99       0.2596
     68  O         84.0730   19.2870   60.3490 O.2    99  TYR99      -0.2718
     69  CB        81.0250   20.1550   59.2750 C.3    99  TYR99       0.0548
     70  CG        80.7760   19.5340   60.6340 C.ar   99  TYR99      -0.0200
     71  CD1       80.4270   18.1930   60.7600 C.ar   99  TYR99      -0.0009
     72  CD2       80.9500   20.2750   61.7980 C.ar   99  TYR99      -0.0009
     73  CE1       80.2740   17.6050   62.0180 C.ar   99  TYR99       0.0417
     74  CE2       80.7930   19.7010   63.0570 C.ar   99  TYR99       0.0417
     75  CZ        80.4600   18.3660   63.1610 C.ar   99  TYR99       0.1957
     76  OH        80.3230   17.8000   64.4110 O.3    99  TYR99      -0.2866
     77  N         83.8540   21.4620   59.7690 N.am  100  SER100     -0.1952
     78  CA        84.8450   21.9340   60.7180 C.3   100  SER100      0.1924
     79  C         84.0440   22.3850   61.9360 C.2   100  SER100      0.2314
     80  O         83.2220   23.2950   61.8440 O.2   100  SER100     -0.2863
     81  CB        85.6270   23.1080   60.1260 C.3   100  SER100      0.2116
     82  OG        86.3690   23.7890   61.1240 O.3   100  SER100     -0.2180
     83  N         84.3720   26.2430   62.9070 N.3   103  LEU103     -0.1245
     84  CA        83.7140   27.2920   62.1210 C.3   103  LEU103      0.1561
     85  C         82.2610   27.5910   62.4830 C.2   103  LEU103      0.2260
     86  O         81.6320   28.4360   61.8450 O.2   103  LEU103     -0.2867
     87  CB        83.7970   26.9830   60.6250 C.3   103  LEU103      0.0270
     88  CG        85.1860   26.7260   60.0490 C.3   103  LEU103      0.0019
     89  CD1       85.0870   26.5220   58.5390 C.3   103  LEU103      0.0001
     90  CD2       86.1070   27.8900   60.3930 C.3   103  LEU103      0.0001
     91  N         84.0140   34.1060   61.3950 N.3   114  TRP114     -0.1241
     92  CA        83.0360   35.0690   60.8850 C.3   114  TRP114      0.1605
     93  C         82.8330   36.3030   61.7470 C.2   114  TRP114      0.2264
     94  O         81.7070   36.7660   61.9070 O.2   114  TRP114     -0.2867
     95  CB        81.6830   34.3750   60.6420 C.3   114  TRP114      0.0550
     96  CG        81.8350   32.9420   60.2560 C.ar  114  TRP114      0.0003
     97  CD1       81.6380   31.8700   61.0600 C.ar  114  TRP114      0.0946
     98  CD2       82.3630   32.4310   59.0240 C.ar  114  TRP114      0.0152
     99  NE1       82.0330   30.7240   60.4250 N.ar  114  TRP114     -0.2442
    100  CE2       82.4840   31.0350   59.1720 C.ar  114  TRP114      0.0810
    101  CE3       82.7610   33.0200   57.8150 C.ar  114  TRP114      0.0012
    102  CZ2       82.9890   30.2070   58.1580 C.ar  114  TRP114      0.0191
    103  CZ3       83.2650   32.1990   56.8100 C.ar  114  TRP114      0.0001
    104  CH2       83.3740   30.8020   56.9930 C.ar  114  TRP114      0.0015
    105  N         86.6160   18.1950   60.2300 N.3   150  CYS150     -0.1235
    106  CA        87.6580   18.7630   59.3910 C.3   150  CYS150      0.1677
    107  C         88.7040   19.6680   60.0070 C.2   150  CYS150      0.2270
    108  O         88.3950   20.5700   60.7840 O.2   150  CYS150     -0.2867
    109  CB        87.0170   19.5240   58.2380 C.3   150  CYS150      0.0956
    110  SG        86.0700   18.5070   57.1280 S.3   150  CYS150     -0.0801
    111  N         91.5380   22.4730   59.1630 N.3   152  MET152     -0.1245
    112  CA        91.6200   23.4810   58.1100 C.3   152  MET152      0.1570
    113  C         93.0800   23.8490   57.8550 C.2   152  MET152      0.2261
    114  O         93.8080   24.2200   58.7730 O.2   152  MET152     -0.2867
    115  CB        90.7880   24.7050   58.4930 C.3   152  MET152      0.0387
    116  CG        89.2870   24.4190   58.6320 C.3   152  MET152      0.0595
    117  SD        88.4430   24.1640   57.0460 S.3   152  MET152     -0.1393
    118  CE        88.1780   22.4890   57.0940 C.3   152  MET152      0.0692
    119  N         90.8460   19.8060   55.0900 N.3   180  ALA180     -0.1231
    120  CA        90.1670   20.5790   54.0630 C.3   180  ALA180      0.1694
    121  C         90.6580   22.0190   54.0420 C.2   180  ALA180      0.2592
    122  O         91.5270   22.4030   54.8250 O.2   180  ALA180     -0.2718
    123  CB        88.6640   20.5500   54.3130 C.3   180  ALA180      0.0304
    124  N         90.0650   22.8120   53.1530 N.am  181  GLY181     -0.1957
    125  CA        90.4230   24.2070   53.0180 C.3   181  GLY181      0.1869
    126  C         91.2380   24.4980   51.7740 C.2   181  GLY181      0.2309
    127  O         91.1850   23.7630   50.7840 O.2   181  GLY181     -0.2863
    128  N         91.8820   16.0810   51.7520 N.3   211  HIS211     -0.1241
    129  CA        91.6520   16.7030   50.4430 C.3   211  HIS211      0.1621
    130  C         93.0420   16.8400   49.8130 C.2   211  HIS211      0.2264
    131  O         93.9390   17.4370   50.4210 O.2   211  HIS211     -0.2867
    132  CB        91.0810   18.1200   50.5970 C.3   211  HIS211      0.0745
    133  CG        89.6330   18.1740   50.9660 C.ar  211  HIS211      0.0817
    134  ND1       89.1570   17.7650   52.1940 N.ar  211  HIS211     -0.2268
    135  CD2       88.5700   18.6930   50.3090 C.ar  211  HIS211      0.1154
    136  CE1       87.8720   18.0420   52.2840 C.ar  211  HIS211      0.1986
    137  NE2       87.4890   18.6180   51.1560 N.ar  211  HIS211     -0.2212
    138  N         93.4630   17.7950   44.3900 N.3   214  GLU214     -0.1245
    139  CA        92.2800   18.4530   43.8790 C.3   214  GLU214      0.1567
    140  C         92.6900   19.5880   42.9690 C.2   214  GLU214      0.2260
    141  O         92.4160   19.5660   41.7740 O.2   214  GLU214     -0.2867
    142  CB        91.4290   19.0070   45.0180 C.3   214  GLU214      0.0388
    143  CG        90.2580   19.8630   44.5250 C.3   214  GLU214      0.1160
    144  CD        89.5480   20.6080   45.6350 C.2   214  GLU214      0.3649
    145  OE1       90.2050   20.9470   46.6470 O.co2 214  GLU214     -0.2457
    146  OE2       88.3320   20.8560   45.4890 O.co2 214  GLU214     -0.2457
    147  N         89.2240   13.7850   46.3890 N.3   235  HIS235     -0.1241
    148  CA        89.5030   14.3010   45.0520 C.3   235  HIS235      0.1621
    149  C         90.6130   13.4530   44.4400 C.2   235  HIS235      0.2264
    150  O         90.3380   12.3740   43.9450 O.2   235  HIS235     -0.2867
    151  CB        89.8780   15.7970   45.0710 C.3   235  HIS235      0.0745
    152  CG        88.7840   16.6920   45.5670 C.ar  235  HIS235      0.0817
    153  ND1       87.6460   16.9550   44.8340 N.ar  235  HIS235     -0.2268
    154  CD2       88.6540   17.3890   46.7210 C.ar  235  HIS235      0.1154
    155  CE1       86.8640   17.7740   45.5110 C.ar  235  HIS235      0.1986
    156  NE2       87.4530   18.0560   46.6590 N.ar  235  HIS235     -0.2212
    157  N         81.7150   19.2570   41.1760 N.3   262  SER262     -0.1217
    158  CA        82.5600   20.1060   42.0020 C.3   262  SER262      0.1889
    159  C         83.8970   20.3980   41.3170 C.2   262  SER262      0.2288
    160  O         84.2870   21.5660   41.1860 O.2   262  SER262     -0.2866
    161  CB        82.8040   19.4150   43.3440 C.3   262  SER262      0.2089
    162  OG        83.8660   20.0050   44.0710 O.3   262  SER262     -0.2183
    163  N         85.2660   24.4040   40.5660 N.3   266  THR266     -0.1218
    164  CA        86.4570   24.8590   41.2780 C.3   266  THR266      0.1862
    165  C         87.6600   24.9940   40.3420 C.2   266  THR266      0.2287
    166  O         88.6870   25.5660   40.7150 O.2   266  THR266     -0.2866
    167  CB        86.8300   23.9010   42.4190 C.3   266  THR266      0.1770
    168  OG1       87.2800   22.6590   41.8670 O.3   266  THR266     -0.2211
    169  CG2       85.6190   23.6370   43.3130 C.3   266  THR266      0.0375
    170  N         80.0090   16.8530   47.3090 N.3   292  ASP292     -0.1225
    171  CA        80.9000   17.8350   47.9190 C.3   292  ASP292      0.1805
    172  C         80.1280   18.9510   48.6110 C.2   292  ASP292      0.2597
    173  O         80.0130   18.9420   49.8350 O.2   292  ASP292     -0.2718
    174  CB        81.9230   18.3980   46.9180 C.3   292  ASP292      0.1424
    175  CG        83.2550   18.7940   47.5840 C.2   292  ASP292      0.3668
    176  OD1       83.4440   18.5050   48.7930 O.co2 292  ASP292     -0.2456
    177  OD2       84.1250   19.3760   46.8890 O.co2 292  ASP292     -0.2456
    178  N         79.6280   19.9190   47.8520 N.am  293  ASP293     -0.1974
    179  CA        78.8640   21.0220   48.4380 C.3   293  ASP293      0.1709
    180  C         77.6800   21.3420   47.5350 C.2   293  ASP293      0.2293
    181  O         77.7670   22.2270   46.6800 O.2   293  ASP293     -0.2864
    182  CB        79.7250   22.2870   48.6190 C.3   293  ASP293      0.1436
    183  CG        80.9610   22.0420   49.4520 C.2   293  ASP293      0.3671
    184  OD1       81.8850   21.3930   48.9360 O.co2 293  ASP293     -0.2456
    185  OD2       81.0300   22.5160   50.6020 O.co2 293  ASP293     -0.2456
    186  N         77.1750   24.5110   44.8310 N.3   297  PHE297     -0.1241
    187  CA        77.2540   24.0550   43.4380 C.3   297  PHE297      0.1605
    188  C         75.8830   23.9060   42.7810 C.2   297  PHE297      0.2264
    189  O         75.7890   23.5070   41.6150 O.2   297  PHE297     -0.2867
    190  CB        78.0180   22.7250   43.3460 C.3   297  PHE297      0.0534
    191  CG        79.4610   22.8020   43.8160 C.ar  297  PHE297     -0.0203
    192  CD1       80.3370   23.7510   43.2920 C.ar  297  PHE297     -0.0042
    193  CD2       79.9510   21.9020   44.7560 C.ar  297  PHE297     -0.0042
    194  CE1       81.6630   23.7920   43.6940 C.ar  297  PHE297     -0.0003
    195  CE2       81.2840   21.9420   45.1610 C.ar  297  PHE297     -0.0003
    196  CZ        82.1360   22.8800   44.6330 C.ar  297  PHE297     -0.0000
@<TRIPOS>BOND
     1   165   166    2
     2   165   164    1
     3   163   164    1
     4   157   158    1
     5   160   159    2
     6   164   167    1
     7   159   158    1
     8   189   188    2
     9   141   140    2
    10   168   167    1
    11   158   161    1
    12   167   169    1
    13   188   187    1
    14   140   139    1
    15   192   194   ar
    16   192   191   ar
    17   161   162    1
    18   190   187    1
    19   190   191    1
    20   187   186    1
    21    19    20    1
    22   194   196   ar
    23   191   193   ar
    24   139   138    1
    25   139   142    1
    26   150   149    2
    27   149   148    1
    28   143   142    1
    29   143   144    1
    30   196   195   ar
    31   193   195   ar
    32   153   155   ar
    33   153   152   ar
    34    20    23    1
    35    20    21    1
    36   148   151    1
    37   148   147    1
    38   151   152    1
    39    23    24    1
    40    27    28    1
    41    31    28    1
    42    31    32    1
    43   146   144   ar
    44   155   156   ar
    45   152   154   ar
    46   144   145   ar
    47    21    22    2
    48    28    29    1
    49    32    33   ar
    50    32    34   ar
    51    33    35   ar
    52   156   154   ar
    53   181   180    2
    54    24    26    1
    55    24    25    1
    56   177   175   ar
    57   174   175    1
    58   174   171    1
    59   170   171    1
    60    29    30    2
    61    29    38   am
    62    34    36   ar
    63    35    37   ar
    64   180   179    1
    65   175   176   ar
    66   178   179    1
    67   178   172   am
    68   171   172    1
    69    38    39    1
    70    36    37   ar
    71   179   182    1
    72   172   173    2
    73   182   183    1
    74   184   183   ar
    75   183   185   ar
    76    39    42    1
    77    39    40    1
    78   130   131    2
    79   130   129    1
    80    42    43    1
    81    40    41    2
    82    43    44    1
    83    43    45    1
    84   135   133   ar
    85   135   137   ar
    86   129   132    1
    87   129   128    1
    88   132   133    1
    89   127   126    2
    90   133   134   ar
    91   137   136   ar
    92    54    52   ar
    93    54    56   ar
    94    46    47    1
    95   126   125    1
    96    52    51   ar
    97    56    55   ar
    98     8    10   ar
    99     8     6   ar
   100   134   136   ar
   101     1     2    1
   102    10     9   ar
   103    47    50    1
   104    47    48    1
   105     6     5    1
   106     6     7   ar
   107    51    50    1
   108    51    53   ar
   109   125   124    1
   110     5     2    1
   111    55    53   ar
   112   124   121   am
   113     4     3    2
   114     9     7   ar
   115     2     3    1
   116    48    49    2
   117   121   120    1
   118   121   122    2
   119   120   123    1
   120   120   119    1
   121    14    13    2
   122    13    12    1
   123    17    16   ar
   124    12    11    1
   125    12    15    1
   126    57    58    1
   127    16    15    1
   128    16    18   ar
   129    62    63    1
   130    62    61    1
   131   103   104   ar
   132   103   101   ar
   133   104   102   ar
   134   117   118    1
   135   117   116    1
   136   110   109    1
   137    63    64    1
   138    61    58    1
   139    58    59    1
   140   101    98   ar
   141   113   112    1
   142   113   114    2
   143   112   115    1
   144   112   111    1
   145   102   100   ar
   146   109   106    1
   147    65    66    1
   148   115   116    1
   149    89    88    1
   150    66    69    1
   151    66    67    1
   152    59    60    2
   153    98   100   ar
   154    98    96   ar
   155   100    99   ar
   156    69    70    1
   157   106   107    1
   158   106   105    1
   159    67    77   am
   160    67    68    2
   161    77    78    1
   162   107   108    2
   163    88    90    1
   164    88    87    1
   165    81    78    1
   166    81    82    1
   167    96    95    1
   168    96    97   ar
   169    99    97   ar
   170    87    84    1
   171    70    71   ar
   172    70    72   ar
   173    95    92    1
   174    78    79    1
   175    71    73   ar
   176    92    91    1
   177    92    93    1
   178    93    94    2
   179    72    74   ar
   180    80    79    2
   181    86    85    2
   182    73    75   ar
   183    84    85    1
   184    84    83    1
   185    74    75   ar
   186    75    76    1
