@<TRIPOS>MOLECULE
tmp/1a4qB01.pdb
 201 193 0 0 0
SMALL
GASTEIGER

@<TRIPOS>ATOM
      1  N         27.8430   39.8400  -20.6990 N.3    40  ARG40      -0.1231
      2  CA        27.3060   39.9780  -22.0400 C.3    40  ARG40       0.1694
      3  C         26.8140   38.5800  -22.4040 C.2    40  ARG40       0.2591
      4  O         26.9190   37.6350  -21.6230 O.2    40  ARG40      -0.2718
      5  CB        28.3660   40.4830  -23.0630 C.3    40  ARG40       0.0321
      6  CG        28.1550   41.9680  -23.4330 C.3    40  ARG40       0.0489
      7  CD        28.4770   42.3510  -24.9200 C.3    40  ARG40       0.2205
      8  NE        27.5510   41.6740  -25.8360 N.pl3  40  ARG40      -0.0865
      9  CZ        27.8020   41.2790  -27.0800 C.cat  40  ARG40       0.5346
     10  NH1       29.0140   41.4810  -27.6460 N.pl3  40  ARG40       0.1354
     11  NH2       26.8170   40.6810  -27.8040 N.pl3  40  ARG40       0.1354
     12  N         26.2650   38.4620  -23.6130 N.am   41  GLU41      -0.1979
     13  CA        25.6140   37.2550  -24.1490 C.3    41  GLU41       0.1602
     14  C         24.6660   36.5830  -23.1480 C.2    41  GLU41       0.2287
     15  O         24.8210   35.4070  -22.8360 O.2    41  GLU41      -0.2864
     16  CB        26.6710   36.2310  -24.6220 C.3    41  GLU41       0.0415
     17  CG        27.6750   36.7250  -25.6610 C.3    41  GLU41       0.1163
     18  CD        28.8140   37.5500  -25.1370 C.2    41  GLU41       0.3649
     19  OE1       29.2280   37.4010  -23.9900 O.co2  41  GLU41      -0.2457
     20  OE2       29.3250   38.3700  -25.8830 O.co2  41  GLU41      -0.2457
     21  N         35.9620   39.7440  -26.0320 N.3    73  ASP73      -0.1225
     22  CA        35.1370   38.5460  -26.1520 C.3    73  ASP73       0.1805
     23  C         35.7020   37.3930  -25.3440 C.2    73  ASP73       0.2597
     24  O         34.9200   36.6680  -24.7540 O.2    73  ASP73      -0.2718
     25  CB        35.0540   38.0180  -27.5950 C.3    73  ASP73       0.1424
     26  CG        34.5140   39.0550  -28.5450 C.2    73  ASP73       0.3668
     27  OD1       33.3610   39.4460  -28.3920 O.co2  73  ASP73      -0.2456
     28  OD2       35.2680   39.5200  -29.3930 O.co2  73  ASP73      -0.2456
     29  N         37.0250   37.2020  -25.3040 N.am   74  ARG74      -0.1979
     30  CA        37.5440   35.9730  -24.7340 C.3    74  ARG74       0.1597
     31  C         38.7340   36.1940  -23.8280 C.2    74  ARG74       0.2287
     32  O         39.5810   36.9870  -24.1870 O.2    74  ARG74      -0.2864
     33  CB        37.9000   35.0420  -25.9060 C.3    74  ARG74       0.0334
     34  CG        36.7390   34.6040  -26.8090 C.3    74  ARG74       0.0492
     35  CD        37.2260   33.6570  -27.9040 C.3    74  ARG74       0.2205
     36  NE        38.3270   34.2460  -28.6940 N.pl3  74  ARG74      -0.0865
     37  CZ        38.2510   35.2100  -29.6020 C.cat  74  ARG74       0.5346
     38  NH1       37.0880   35.8150  -29.9460 N.pl3  74  ARG74       0.1354
     39  NH2       39.4080   35.6300  -30.1560 N.pl3  74  ARG74       0.1354
     40  N         36.3280   34.9140  -17.9160 N.3    78  ARG78      -0.1245
     41  CA        34.8960   34.8630  -18.1980 C.3    78  ARG78       0.1563
     42  C         34.3220   33.5410  -17.7140 C.2    78  ARG78       0.2260
     43  O         34.9890   32.5020  -17.7770 O.2    78  ARG78      -0.2867
     44  CB        34.6110   34.9930  -19.7100 C.3    78  ARG78       0.0307
     45  CG        34.9040   36.3160  -20.3250 C.3    78  ARG78       0.0489
     46  CD        33.5870   37.0380  -20.3330 C.3    78  ARG78       0.2205
     47  NE        33.1780   37.0500  -21.6870 N.pl3  78  ARG78      -0.0865
     48  CZ        32.1140   37.5160  -22.2810 C.cat  78  ARG78       0.5346
     49  NH1       31.0430   38.1430  -21.7510 N.pl3  78  ARG78       0.1354
     50  NH2       32.2230   37.3220  -23.6000 N.pl3  78  ARG78       0.1354
     51  N         33.8210   31.3280  -22.1740 N.3   101  TRP101     -0.1227
     52  CA        33.6400   32.5670  -22.9200 C.3   101  TRP101      0.1737
     53  C         32.6750   32.3400  -24.1030 C.2   101  TRP101      0.2596
     54  O         32.4850   33.2180  -24.9300 O.2   101  TRP101     -0.2718
     55  CB        35.0090   33.1240  -23.3950 C.3   101  TRP101      0.0564
     56  CG        36.0300   32.1940  -23.9640 C.ar  101  TRP101      0.0003
     57  CD1       37.2680   32.0060  -23.4280 C.ar  101  TRP101      0.0946
     58  CD2       35.9880   31.4360  -25.1900 C.ar  101  TRP101      0.0152
     59  NE1       37.9920   31.1790  -24.2450 N.ar  101  TRP101     -0.2442
     60  CE2       37.2500   30.8200  -25.3280 C.ar  101  TRP101      0.0810
     61  CE3       35.0200   31.2020  -26.1960 C.ar  101  TRP101      0.0012
     62  CZ2       37.5700   29.9980  -26.4210 C.ar  101  TRP101      0.0191
     63  CZ3       35.3260   30.3890  -27.2740 C.ar  101  TRP101      0.0001
     64  CH2       36.5960   29.7980  -27.3780 C.ar  101  TRP101      0.0015
     65  N         32.0240   31.1780  -24.1850 N.am  102  SER102     -0.1952
     66  CA        30.8730   30.9340  -25.0500 C.3   102  SER102      0.1924
     67  C         30.0060   29.9450  -24.2490 C.2   102  SER102      0.2314
     68  O         30.5840   29.0770  -23.6110 O.2   102  SER102     -0.2863
     69  CB        31.3270   30.3340  -26.4170 C.3   102  SER102      0.2116
     70  OG        30.1940   30.1580  -27.2540 O.3   102  SER102     -0.2180
     71  N         40.0480   27.0540  -34.7080 N.3   144  ASN144     -0.1225
     72  CA        39.8150   28.4720  -34.8420 C.3   144  ASN144      0.1785
     73  C         38.5380   28.8700  -34.1160 C.2   144  ASN144      0.2597
     74  O         37.4330   28.9550  -34.6330 O.2   144  ASN144     -0.2718
     75  CB        39.7350   28.8590  -36.3400 C.3   144  ASN144      0.1169
     76  CG        39.9020   30.3490  -36.5560 C.2   144  ASN144      0.2627
     77  OD1       39.8990   31.1480  -35.6410 O.2   144  ASN144     -0.2716
     78  ND2       40.0470   30.7980  -37.7800 N.am  144  ASN144     -0.0877
     79  N         38.7890   29.0020  -32.8280 N.am  145  ILE145     -0.1980
     80  CA        37.7920   29.3990  -31.8470 C.3   145  ILE145      0.1595
     81  C         36.4970   28.5630  -31.9080 C.2   145  ILE145      0.2287
     82  O         35.4430   29.0000  -32.3280 O.2   145  ILE145     -0.2864
     83  CB        37.5380   30.9130  -32.0410 C.3   145  ILE145      0.0276
     84  CG1       38.8660   31.6370  -31.8890 C.3   145  ILE145      0.0022
     85  CG2       36.5750   31.4770  -30.9810 C.3   145  ILE145      0.0022
     86  CD1       39.0150   33.0950  -32.2830 C.3   145  ILE145      0.0001
     87  N         33.1770   27.2420  -30.6340 N.3   147  ARG147     -0.1245
     88  CA        32.2540   28.1640  -29.9640 C.3   147  ARG147      0.1563
     89  C         30.8400   27.6120  -30.1070 C.2   147  ARG147      0.2260
     90  O         30.6140   26.6550  -30.8640 O.2   147  ARG147     -0.2867
     91  CB        32.4250   29.5430  -30.6310 C.3   147  ARG147      0.0307
     92  CG        32.2800   29.5620  -32.1770 C.3   147  ARG147      0.0489
     93  CD        32.6550   30.9430  -32.7050 C.3   147  ARG147      0.2205
     94  NE        32.6870   31.1210  -34.1580 N.pl3 147  ARG147     -0.0865
     95  CZ        33.6650   30.7850  -35.0020 C.cat 147  ARG147      0.5346
     96  NH1       34.8250   30.1960  -34.6280 N.pl3 147  ARG147      0.1354
     97  NH2       33.5830   31.1740  -36.2920 N.pl3 147  ARG147      0.1354
     98  N         25.1040   30.6230  -27.3680 N.3   150  GLU150     -0.1245
     99  CA        24.7570   31.7860  -26.5350 C.3   150  GLU150      0.1567
    100  C         23.2510   31.8580  -26.3760 C.2   150  GLU150      0.2260
    101  O         22.6560   32.9190  -26.2200 O.2   150  GLU150     -0.2867
    102  CB        25.2790   33.1470  -27.0940 C.3   150  GLU150      0.0388
    103  CG        26.6650   33.2380  -27.7400 C.3   150  GLU150      0.1160
    104  CD        27.8430   32.6930  -26.9610 C.2   150  GLU150      0.3649
    105  OE1       27.6510   32.2640  -25.8360 O.co2 150  GLU150     -0.2457
    106  OE2       28.9780   32.6810  -27.4500 O.co2 150  GLU150     -0.2457
    107  N         35.9530   27.7520  -36.9100 N.3   167  GLY167     -0.1210
    108  CA        36.4120   28.2700  -38.1920 C.3   167  GLY167      0.1956
    109  C         36.4750   29.7780  -38.1860 C.2   167  GLY167      0.2613
    110  O         36.1770   30.4040  -37.1750 O.2   167  GLY167     -0.2717
    111  N         36.9100   30.3530  -39.3040 N.am  168  SER168     -0.1938
    112  CA        37.0380   31.7930  -39.4440 C.3   168  SER168      0.2055
    113  C         35.6890   32.5200  -39.4460 C.2   168  SER168      0.2643
    114  O         34.7870   32.2550  -40.2330 O.2   168  SER168     -0.2714
    115  CB        37.7980   32.1320  -40.7680 C.3   168  SER168      0.2130
    116  OG        37.9230   33.5460  -40.9370 O.3   168  SER168     -0.2179
    117  N         35.5740   33.5330  -38.5900 N.am  169  ALA169     -0.1963
    118  CA        34.4060   34.4160  -38.5940 C.3   169  ALA169      0.1728
    119  C         34.3620   35.2420  -39.8910 C.2   169  ALA169      0.2616
    120  O         33.2920   35.7760  -40.1710 O.2   169  ALA169     -0.2715
    121  CB        34.4490   35.3660  -37.3960 C.3   169  ALA169      0.0334
    122  N         35.4320   35.3510  -40.6950 N.am  170  SER170     -0.1950
    123  CA        35.2750   36.0250  -41.9840 C.3   170  SER170      0.1924
    124  C         35.5190   35.0530  -43.1420 C.2   170  SER170      0.2314
    125  O         35.8570   35.4910  -44.2400 O.2   170  SER170     -0.2863
    126  CB        36.2330   37.2170  -42.1080 C.3   170  SER170      0.2116
    127  OG        37.6110   36.8930  -41.9340 O.3   170  SER170     -0.2180
    128  N         26.6920   30.3810  -37.5630 N.3   199  GLU199     -0.1231
    129  CA        27.1220   30.8350  -36.2220 C.3   199  GLU199      0.1699
    130  C         25.9150   31.0380  -35.3270 C.2   199  GLU199      0.2592
    131  O         24.8540   31.3730  -35.8300 O.2   199  GLU199     -0.2718
    132  CB        27.7260   32.2280  -36.1860 C.3   199  GLU199      0.0402
    133  CG        28.8650   32.6500  -37.0770 C.3   199  GLU199      0.1161
    134  CD        30.1900   32.1650  -36.6030 C.2   199  GLU199      0.3649
    135  OE1       30.3480   31.9470  -35.4270 O.co2 199  GLU199     -0.2457
    136  OE2       31.0770   31.9810  -37.4260 O.co2 199  GLU199     -0.2457
    137  N         26.1570   30.9250  -34.0120 N.am  200  GLU200     -0.1979
    138  CA        25.2290   31.3530  -32.9590 C.3   200  GLU200      0.1602
    139  C         23.7610   31.0500  -33.2140 C.2   200  GLU200      0.2287
    140  O         22.9240   31.9500  -33.1750 O.2   200  GLU200     -0.2864
    141  CB        25.4410   32.8480  -32.7740 C.3   200  GLU200      0.0415
    142  CG        26.8160   33.2160  -32.2150 C.3   200  GLU200      0.1163
    143  CD        27.0590   34.7040  -32.1390 C.2   200  GLU200      0.3649
    144  OE1       26.4010   35.4630  -32.8530 O.co2 200  GLU200     -0.2457
    145  OE2       27.9190   35.1490  -31.3740 O.co2 200  GLU200     -0.2457
    146  N         23.4410   32.9660  -37.6530 N.3   216  ARG216     -0.1245
    147  CA        24.1580   34.1280  -38.1480 C.3   216  ARG216      0.1563
    148  C         25.1980   33.6850  -39.1650 C.2   216  ARG216      0.2260
    149  O         25.9310   32.7240  -38.9350 O.2   216  ARG216     -0.2867
    150  CB        24.8660   34.8150  -36.9820 C.3   216  ARG216      0.0307
    151  CG        25.7710   35.9780  -37.2770 C.3   216  ARG216      0.0489
    152  CD        26.4300   36.3760  -35.9770 C.3   216  ARG216      0.2205
    153  NE        27.5290   37.3210  -36.1150 N.pl3 216  ARG216     -0.0865
    154  CZ        28.0390   38.0260  -35.1010 C.cat 216  ARG216      0.5346
    155  NH1       27.5500   37.9430  -33.8360 N.pl3 216  ARG216      0.1354
    156  NH2       29.1340   38.7950  -35.2910 N.pl3 216  ARG216      0.1354
    157  N         28.3900   35.3530  -40.5740 N.3   218  ASN218     -0.1240
    158  CA        29.1970   36.5360  -40.2950 C.3   218  ASN218      0.1653
    159  C         30.0700   37.0120  -41.4640 C.2   218  ASN218      0.2266
    160  O         30.6760   38.0680  -41.4290 O.2   218  ASN218     -0.2867
    161  CB        30.0470   36.2150  -39.0740 C.3   218  ASN218      0.1155
    162  CG        30.5350   37.4590  -38.4070 C.2   218  ASN218      0.2627
    163  OD1       29.7390   38.2680  -37.9690 O.2   218  ASN218     -0.2716
    164  ND2       31.8420   37.6240  -38.3450 N.am  218  ASN218     -0.0877
    165  N         23.5490   48.2880  -33.9180 N.3   298  ARG298     -0.1245
    166  CA        22.8050   47.4880  -32.9260 C.3   298  ARG298      0.1563
    167  C         21.9240   48.4160  -32.1000 C.2   298  ARG298      0.2260
    168  O         22.2000   48.6760  -30.9380 O.2   298  ARG298     -0.2867
    169  CB        23.8710   46.7250  -32.1210 C.3   298  ARG298      0.0307
    170  CG        24.5300   45.6840  -33.0040 C.3   298  ARG298      0.0489
    171  CD        25.6040   44.8720  -32.3030 C.3   298  ARG298      0.2205
    172  NE        26.0450   43.7310  -33.1000 N.pl3 298  ARG298     -0.0865
    173  CZ        26.8790   42.8180  -32.6330 C.cat 298  ARG298      0.5346
    174  NH1       27.3580   42.9310  -31.3660 N.pl3 298  ARG298      0.1354
    175  NH2       27.2310   41.7780  -33.4120 N.pl3 298  ARG298      0.1354
    176  N         21.0840   44.4620  -29.0650 N.3   332  TRP332     -0.1227
    177  CA        22.1900   43.6450  -29.4820 C.3   332  TRP332      0.1737
    178  C         21.7170   42.2010  -29.6570 C.2   332  TRP332      0.2595
    179  O         20.8350   42.0170  -30.4890 O.2   332  TRP332     -0.2718
    180  CB        23.3170   43.7720  -28.4520 C.3   332  TRP332      0.0564
    181  CG        24.0440   45.0880  -28.4910 C.ar  332  TRP332      0.0003
    182  CD1       23.4950   46.3430  -28.5030 C.ar  332  TRP332      0.0946
    183  CD2       25.4600   45.2790  -28.5790 C.ar  332  TRP332      0.0152
    184  NE1       24.4850   47.2800  -28.5980 N.ar  332  TRP332     -0.2442
    185  CE2       25.7030   46.6610  -28.6540 C.ar  332  TRP332      0.0810
    186  CE3       26.5590   44.4010  -28.5930 C.ar  332  TRP332      0.0012
    187  CZ2       27.0010   47.1830  -28.7670 C.ar  332  TRP332      0.0191
    188  CZ3       27.8430   44.9070  -28.6950 C.ar  332  TRP332      0.0001
    189  CH2       28.0580   46.2940  -28.7790 C.ar  332  TRP332      0.0015
    190  N         22.1980   41.1380  -29.0020 N.am  333  TYR333     -0.1976
    191  CA        21.7040   39.7980  -29.2820 C.3   333  TYR333      0.1639
    192  C         20.2380   39.5760  -28.9110 C.2   333  TYR333      0.2290
    193  O         19.7640   40.2500  -27.9990 O.2   333  TYR333     -0.2864
    194  CB        22.5840   38.7780  -28.5430 C.3   333  TYR333      0.0560
    195  CG        23.9720   38.5680  -29.1170 C.ar  333  TYR333     -0.0198
    196  CD1       24.4490   39.3690  -30.1760 C.ar  333  TYR333     -0.0009
    197  CD2       24.7410   37.4750  -28.6910 C.ar  333  TYR333     -0.0009
    198  CE1       25.6620   39.0890  -30.8090 C.ar  333  TYR333      0.0417
    199  CE2       25.9650   37.1820  -29.3150 C.ar  333  TYR333      0.0417
    200  CZ        26.4070   38.0000  -30.3740 C.ar  333  TYR333      0.1957
    201  OH        27.5630   37.6760  -31.0340 O.3   333  TYR333     -0.2866
@<TRIPOS>BOND
     1   125   124    2
     2   124   123    1
     3   126   123    1
     4   126   127    1
     5   123   122    1
     6   159   160    2
     7   159   158    1
     8   116   115    1
     9   115   112    1
    10   122   119   am
    11   157   158    1
    12   158   161    1
    13   114   113    2
    14   120   119    2
    15   119   118    1
    16   113   112    1
    17   113   117   am
    18   112   111    1
    19   111   109   am
    20   148   149    2
    21   148   147    1
    22   161   162    1
    23   118   117    1
    24   118   121    1
    25   162   164   am
    26   162   163    2
    27   108   109    1
    28   108   107    1
    29   109   110    2
    30   147   146    1
    31   147   150    1
    32    78    76   am
    33   128   129    1
    34   136   134   ar
    35   151   150    1
    36   151   152    1
    37   133   134    1
    38   133   132    1
    39   134   135   ar
    40    76    75    1
    41    76    77    2
    42    75    72    1
    43    97    95    1
    44   129   132    1
    45   129   130    1
    46   153   152    1
    47   153   154    2
    48   131   130    2
    49   130   137   am
    50   156   154    1
    51   154   155    1
    52    95    96    1
    53    95    94    2
    54    72    71    1
    55    72    73    1
    56    74    73    2
    57    94    93    1
    58    73    79   am
    59   137   138    1
    60   165   166    1
    61   175   173    1
    62   139   140    2
    63   139   138    1
    64   172   173    2
    65   172   171    1
    66   170   171    1
    67   170   169    1
    68   138   141    1
    69   166   169    1
    70   166   167    1
    71   144   143   ar
    72    79    80    1
    73   141   142    1
    74    93    92    1
    75   173   174    1
    76    82    81    2
    77    86    84    1
    78   142   143    1
    79    92    91    1
    80   143   145   ar
    81   167   168    2
    82    83    84    1
    83    83    80    1
    84    83    85    1
    85    81    80    1
    86   201   200    1
    87    90    89    2
    88   198   200   ar
    89   198   196   ar
    90    87    88    1
    91    91    88    1
    92   179   178    2
    93   200   199   ar
    94   196   195   ar
    95    39    37    1
    96    89    88    1
    97    38    37    1
    98   178   177    1
    99   178   190   am
   100    37    36    2
   101   177   176    1
   102   177   180    1
   103    28    26   ar
   104   199   197   ar
   105   191   190    1
   106   191   192    1
   107   191   194    1
   108   195   197   ar
   109   195   194    1
   110   192   193    2
   111   189   187   ar
   112   189   188   ar
   113   187   185   ar
   114   188   186   ar
   115    36    35    1
   116   185   184   ar
   117   185   183   ar
   118   184   182   ar
   119   186   183   ar
   120   183   181   ar
   121    26    27   ar
   122    26    25    1
   123   182   181   ar
   124   181   180    1
   125    35    34    1
   126    11     9    1
   127   103   102    1
   128   103   104    1
   129    10     9    1
   130    25    22    1
   131   106   104   ar
   132    64    63   ar
   133    64    62   ar
   134    98    99    1
   135    63    61   ar
   136    70    69    1
   137   102    99    1
   138     9     8    2
   139   104   105   ar
   140    34    33    1
   141    99   100    1
   142    62    60   ar
   143    69    66    1
   144   100   101    2
   145    61    58   ar
   146    22    21    1
   147    22    23    1
   148    33    30    1
   149    20    18   ar
   150     8     7    1
   151    17    18    1
   152    17    16    1
   153    23    29   am
   154    23    24    2
   155    60    58   ar
   156    60    59   ar
   157    29    30    1
   158    58    56   ar
   159    18    19   ar
   160    66    67    1
   161    66    65    1
   162    54    53    2
   163     7     6    1
   164    30    31    1
   165    16    13    1
   166    67    68    2
   167    59    57   ar
   168    32    31    2
   169    65    53   am
   170    13    12    1
   171    13    14    1
   172    53    52    1
   173    56    57   ar
   174    56    55    1
   175    12     3   am
   176    50    48    1
   177     6     5    1
   178    55    52    1
   179    14    15    2
   180     5     2    1
   181    52    51    1
   182     3     2    1
   183     3     4    2
   184    48    49    1
   185    48    47    2
   186     2     1    1
   187    47    46    1
   188    46    45    1
   189    45    44    1
   190    44    41    1
   191    41    40    1
   192    41    42    1
   193    43    42    2
