@<TRIPOS>MOLECULE
tmp/1a4wB00.pdb
 165 156 0 0 0
SMALL
GASTEIGER

@<TRIPOS>ATOM
      1  N         11.7770    0.1620   10.4930 N.3    17  MET17      -0.1245
      2  CA        11.8300   -1.2950   10.1560 C.3    17  MET17       0.1570
      3  C         13.2140   -1.4800    9.5440 C.2    17  MET17       0.2261
      4  O         13.5900   -0.6930    8.6590 O.2    17  MET17      -0.2867
      5  CB        10.7460   -1.7630    9.1470 C.3    17  MET17       0.0387
      6  CG        11.0350   -3.1650    8.6120 C.3    17  MET17       0.0595
      7  SD         9.7550   -3.5740    7.3100 S.3    17  MET17      -0.1393
      8  CE         8.2750   -3.7320    8.2090 C.3    17  MET17       0.0692
      9  N         15.3060   -3.7410    7.2980 N.3    19  PHE19      -0.1241
     10  CA        14.8580   -4.5710    6.1270 C.3    19  PHE19       0.1605
     11  C         16.0540   -5.0350    5.3180 C.2    19  PHE19       0.2264
     12  O         16.9110   -4.2480    4.8650 O.2    19  PHE19      -0.2867
     13  CB        13.8970   -3.6790    5.2870 C.3    19  PHE19       0.0534
     14  CG        13.1530   -4.4390    4.2090 C.ar   19  PHE19      -0.0203
     15  CD1       12.1240   -5.3210    4.5950 C.ar   19  PHE19      -0.0042
     16  CD2       13.6560   -4.4380    2.9070 C.ar   19  PHE19      -0.0042
     17  CE1       11.4800   -6.1000    3.6430 C.ar   19  PHE19      -0.0003
     18  CE2       13.0190   -5.2310    1.9340 C.ar   19  PHE19      -0.0003
     19  CZ        11.9480   -6.0410    2.3310 C.ar   19  PHE19      -0.0000
     20  N         18.1130   -6.4150    2.2140 N.3    21  LYS21      -0.1245
     21  CA        18.0160   -6.1750    0.7560 C.3    21  LYS21       0.1561
     22  C         17.7870   -7.4710   -0.0210 C.2    21  LYS21       0.2260
     23  O         16.8860   -7.4960   -0.8810 O.2    21  LYS21      -0.2867
     24  CB        19.2140   -5.5260    0.1440 C.3    21  LYS21       0.0271
     25  CG        19.4550   -4.0690    0.5350 C.3    21  LYS21       0.0035
     26  CD        20.7240   -3.6280   -0.1820 C.3    21  LYS21       0.0206
     27  CE        20.8940   -2.1360   -0.1270 C.3    21  LYS21       0.1093
     28  NZ        22.3210   -1.7550   -0.3350 N.3    21  LYS21      -0.1314
     29  N         14.7390  -10.3990    0.5660 N.3    24  GLN24      -0.1231
     30  CA        13.9800   -9.2810    1.1590 C.3    24  GLN24       0.1698
     31  C         13.3540   -9.8350    2.4130 C.2    24  GLN24       0.2595
     32  O         12.9570  -11.0190    2.3800 O.2    24  GLN24      -0.2718
     33  CB        12.9630   -8.7140    0.1570 C.3    24  GLN24       0.0381
     34  CG        13.7560   -8.0690   -0.9540 C.3    24  GLN24       0.0905
     35  CD        13.1970   -6.9110   -1.7090 C.2    24  GLN24       0.2608
     36  OE1       11.9910   -6.6860   -1.8390 O.2    24  GLN24      -0.2717
     37  NE2       14.1670   -6.1860   -2.2800 N.am   24  GLN24      -0.0878
     38  N         13.4960   -9.1540    3.5320 N.am   25  GLU25      -0.1920
     39  CA        12.8700   -9.7260    4.7560 C.3    25  GLU25       0.1949
     40  C         13.0350   -8.7040    5.8980 C.2    25  GLU25       0.2658
     41  O         13.9720   -7.9000    5.7810 O.2    25  GLU25      -0.2711
     42  CB        13.4470  -11.0490    5.2070 C.2    25  GLU25       0.0111
     43  CG        14.9560  -11.1470    5.2930 C.2    25  GLU25       0.0838
     44  CD        15.5140  -12.5070    5.5690 C.2    25  GLU25       0.3877
     45  OE1       14.6900  -13.4430    5.6750 O.co2  25  GLU25      -0.2406
     46  OE2       16.7120  -12.7510    5.6450 O.co2  25  GLU25      -0.2406
     47  N         12.1110   -8.7920    6.8380 N.am   26  LEU26      -0.1974
     48  CA        12.1880   -7.8590    7.9690 C.3    26  LEU26       0.1596
     49  C         13.3320   -8.3890    8.8640 C.2    26  LEU26       0.2287
     50  O         13.2950   -9.5890    9.1870 O.2    26  LEU26      -0.2864
     51  CB        10.8570   -7.8430    8.6880 C.3    26  LEU26       0.0297
     52  CG        10.9550   -7.4850   10.1700 C.3    26  LEU26       0.0022
     53  CD1       11.1080   -5.9950   10.4130 C.3    26  LEU26       0.0001
     54  CD2        9.7930   -8.0880   10.9400 C.3    26  LEU26       0.0001
     55  N         18.4830   -1.7460    4.5740 N.3    60  LEU60      -0.1245
     56  CA        17.7230   -0.5240    4.3750 C.3    60  LEU60       0.1561
     57  C         16.9240   -0.2920    5.6790 C.2    60  LEU60       0.2260
     58  O         16.4500   -1.1980    6.3010 O.2    60  LEU60      -0.2867
     59  CB        16.7890   -0.6200    3.1710 C.3    60  LEU60       0.0270
     60  CG        17.4740   -0.8450    1.8130 C.3    60  LEU60       0.0019
     61  CD1       16.3800   -1.0690    0.7690 C.3    60  LEU60       0.0001
     62  CD2       18.3270    0.3630    1.4770 C.3    60  LEU60       0.0001
     63  N         13.3920    1.4890    6.6480 N.3    62  ARG62      -0.1245
     64  CA        12.0560    1.8610    6.2180 C.3    62  ARG62       0.1563
     65  C         11.3590    2.5480    7.3770 C.2    62  ARG62       0.2260
     66  O         10.9570    1.9510    8.4110 O.2    62  ARG62      -0.2867
     67  CB        11.3780    0.6420    5.6320 C.3    62  ARG62       0.0307
     68  CG        12.2310   -0.0300    4.4980 C.3    62  ARG62       0.0489
     69  CD        11.4300   -1.2340    4.1740 C.3    62  ARG62       0.2205
     70  NE        10.1790   -0.9000    3.4910 N.pl3  62  ARG62      -0.0865
     71  CZ         9.4420   -1.7700    2.7930 C.cat  62  ARG62       0.5346
     72  NH1        9.8180   -3.0520    2.6770 N.pl3  62  ARG62       0.1354
     73  NH2        8.2670   -1.3950    2.2430 N.pl3  62  ARG62       0.1354
     74  N          3.1050   -4.2680    7.3810 N.3    68  ARG68      -0.1231
     75  CA         4.3880   -5.0120    7.3890 C.3    68  ARG68       0.1694
     76  C          5.0340   -5.2460    6.0370 C.2    68  ARG68       0.2593
     77  O          6.1730   -4.8920    5.6810 O.2    68  ARG68      -0.2718
     78  CB         4.0790   -6.3940    8.0330 C.3    68  ARG68       0.0321
     79  CG         5.3350   -7.3010    8.0630 C.3    68  ARG68       0.0489
     80  CD         5.1390   -8.4630    8.9670 C.3    68  ARG68       0.2205
     81  NE         4.1630   -9.4530    8.5400 N.pl3  68  ARG68      -0.0865
     82  CZ         4.3610  -10.3970    7.5910 C.cat  68  ARG68       0.5346
     83  NH1        5.5120  -10.6570    6.9840 N.pl3  68  ARG68       0.1354
     84  NH2        3.2700  -10.8510    6.9320 N.pl3  68  ARG68       0.1354
     85  N          4.1790   -5.6130    5.0630 N.am   69  THR69      -0.1939
     86  CA         4.7320   -6.0810    3.7500 C.3    69  THR69       0.2028
     87  C          4.5590   -5.2560    2.5050 C.2    69  THR69       0.2642
     88  O          5.4150   -5.2380    1.5860 O.2    69  THR69      -0.2714
     89  CB         3.9410   -7.4580    3.8240 C.3    69  THR69       0.1808
     90  OG1        4.9020   -8.4940    3.9350 O.3    69  THR69      -0.2208
     91  CG2        2.7000   -7.4220    3.0130 C.3    69  THR69       0.0379
     92  N          3.6440   -4.2970    2.5240 N.am   70  ARG70      -0.1963
     93  CA         3.3490   -3.4050    1.3910 C.3    70  ARG70       0.1729
     94  C          4.3780   -2.2880    1.2920 C.2    70  ARG70       0.2616
     95  O          4.9380   -1.8550    2.3230 O.2    70  ARG70      -0.2715
     96  CB         1.9270   -2.7860    1.5310 C.3    70  ARG70       0.0348
     97  CG         0.8920   -3.8020    0.9960 C.3    70  ARG70       0.0492
     98  CD        -0.5110   -3.2340    1.2330 C.3    70  ARG70       0.2205
     99  NE        -0.6680   -1.9800    0.4520 N.pl3  70  ARG70      -0.0865
    100  CZ        -0.7120   -0.7570    1.0400 C.cat  70  ARG70       0.5346
    101  NH1       -0.7000   -0.6070    2.3540 N.pl3  70  ARG70       0.1354
    102  NH2       -0.8350    0.2500    0.1300 N.pl3  70  ARG70       0.1354
    103  N          4.6660   -1.8830    0.0790 N.am   71  TYR71      -0.1974
    104  CA         5.5310   -0.7120   -0.1490 C.3    71  TYR71       0.1639
    105  C          4.5200    0.4260   -0.0260 C.2    71  TYR71       0.2290
    106  O          3.5350    0.3880   -0.8130 O.2    71  TYR71      -0.2864
    107  CB         6.2590   -0.7630   -1.4800 C.3    71  TYR71       0.0560
    108  CG         6.9500    0.5510   -1.7460 C.ar   71  TYR71      -0.0198
    109  CD1        7.9330    1.0640   -0.9010 C.ar   71  TYR71      -0.0009
    110  CD2        6.5070    1.3720   -2.7960 C.ar   71  TYR71      -0.0009
    111  CE1        8.5020    2.3240   -1.0570 C.ar   71  TYR71       0.0417
    112  CE2        7.0600    2.6410   -2.9640 C.ar   71  TYR71       0.0417
    113  CZ         7.9740    3.1370   -2.0650 C.ar   71  TYR71       0.1957
    114  OH         8.5350    4.3400   -2.3670 O.3    71  TYR71      -0.2866
    115  N          4.2600    6.9650   -1.1320 N.3    74  ASN74      -0.1240
    116  CA         3.9740    8.3190   -0.6470 C.3    74  ASN74       0.1653
    117  C          3.9020    8.3880    0.8860 C.2    74  ASN74       0.2266
    118  O          3.5060    9.4690    1.3550 O.2    74  ASN74      -0.2867
    119  CB         2.6580    8.8160   -1.2690 C.3    74  ASN74       0.1155
    120  CG         2.7010    9.0100   -2.7660 C.2    74  ASN74       0.2627
    121  OD1        3.5780    8.4900   -3.4400 O.2    74  ASN74      -0.2716
    122  ND2        1.5780    9.5090   -3.2680 N.am   74  ASN74      -0.0877
    123  N          5.7860    6.0040    3.4100 N.3    76  GLU76      -0.1231
    124  CA         7.0850    5.5390    3.9530 C.3    76  GLU76       0.1699
    125  C          8.2160    6.1290    3.1850 C.2    76  GLU76       0.2592
    126  O          8.1380    6.5170    1.9940 O.2    76  GLU76      -0.2718
    127  CB         7.2090    4.0320    3.8970 C.3    76  GLU76       0.0402
    128  CG         7.6190    3.2920    2.6320 C.3    76  GLU76       0.1161
    129  CD         7.7180    1.7890    2.8010 C.2    76  GLU76       0.3649
    130  OE1        6.7380    1.0430    2.7290 O.co2  76  GLU76      -0.2457
    131  OE2        8.9060    1.5230    3.1860 O.co2  76  GLU76      -0.2457
    132  N          9.3370    6.2320    3.8750 N.am   77  LYS77      -0.1966
    133  CA        10.5980    6.7180    3.2770 C.3    77  LYS77       0.1728
    134  C         11.6190    5.6150    3.5370 C.2    77  LYS77       0.2616
    135  O         11.6370    5.0310    4.6750 O.2    77  LYS77      -0.2715
    136  CB        10.9680    7.9960    3.9910 C.3    77  LYS77       0.0311
    137  CG        10.5570    9.2640    3.2410 C.3    77  LYS77       0.0038
    138  CD         9.6050    8.9800    2.0840 C.3    77  LYS77       0.0206
    139  CE         8.7310   10.1790    1.7480 C.3    77  LYS77       0.1093
    140  NZ         7.2760    9.8550    1.7340 N.3    77  LYS77      -0.1314
    141  N         12.4700    5.3470    2.5940 N.am   78  ILE78      -0.1977
    142  CA        13.4690    4.2800    2.6750 C.3    78  ILE78       0.1596
    143  C         14.8330    4.9410    2.6610 C.2    78  ILE78       0.2287
    144  O         15.0310    5.9130    1.9040 O.2    78  ILE78      -0.2864
    145  CB        13.2880    3.2070    1.5540 C.3    78  ILE78       0.0276
    146  CG1       11.8440    2.6650    1.6140 C.3    78  ILE78       0.0022
    147  CG2       14.3910    2.1230    1.6670 C.3    78  ILE78       0.0022
    148  CD1       11.3430    1.5350    0.6640 C.3    78  ILE78       0.0001
    149  N         19.2330    4.5100    3.2360 N.3    80  MET80      -0.1245
    150  CA        20.5080    3.8310    3.1580 C.3    80  MET80       0.1570
    151  C         21.2900    4.2830    4.4030 C.2    80  MET80       0.2261
    152  O         21.0930    5.4160    4.9080 O.2    80  MET80      -0.2867
    153  CB        21.1990    4.1830    1.8430 C.3    80  MET80       0.0387
    154  CG        20.3330    3.6340    0.7050 C.3    80  MET80       0.0595
    155  SD        21.3340    3.5520   -0.8510 S.3    80  MET80      -0.1393
    156  CE        22.0110    5.2340   -0.8170 C.3    80  MET80       0.0692
    157  N         21.2340   10.2900    4.4060 N.3   107  LYS107     -0.1245
    158  CA        20.6430   11.6400    4.3450 C.3   107  LYS107      0.1561
    159  C         19.5400   11.7270    5.4100 C.2   107  LYS107      0.2260
    160  O         18.8740   10.7230    5.6300 O.2   107  LYS107     -0.2867
    161  CB        20.0320   11.9810    2.9920 C.3   107  LYS107      0.0271
    162  CG        18.8390   11.1280    2.5830 C.3   107  LYS107      0.0035
    163  CD        18.3330   11.6640    1.2650 C.3   107  LYS107      0.0206
    164  CE        17.5220   10.6260    0.4810 C.3   107  LYS107      0.1093
    165  NZ        16.3230   10.2220    1.1830 N.3   107  LYS107     -0.1314
@<TRIPOS>BOND
     1   121   120    2
     2   122   120   am
     3   112   110   ar
     4   112   113   ar
     5   110   108   ar
     6   120   119    1
     7   114   113    1
     8    37    35   am
     9   113   111   ar
    10    36    35    2
    11   108   107    1
    12   108   109   ar
    13    35    34    1
    14   107   104    1
    15   119   116    1
    16   115   116    1
    17   111   109   ar
    18    34    33    1
    19    23    22    2
    20   155   156    1
    21   155   154    1
    22   106   105    2
    23   116   117    1
    24    28    27    1
    25    26    27    1
    26    26    25    1
    27   104   105    1
    28   104   103    1
    29    22    21    1
    30   103    94   am
    31   102   100    1
    32    24    25    1
    33    24    21    1
    34    33    30    1
    35    99   100    2
    36    99    98    1
    37   164   165    1
    38   164   163    1
    39    29    30    1
    40   148   146    1
    41   154   153    1
    42    21    20    1
    43    61    60    1
    44   117   118    2
    45    97    98    1
    46    97    96    1
    47   100   101    1
    48    30    31    1
    49   163   162    1
    50    94    93    1
    51    94    95    2
    52    93    96    1
    53    93    92    1
    54    62    60    1
    55   145   146    1
    56   145   147    1
    57   145   142    1
    58    88    87    2
    59   140   139    1
    60   139   138    1
    61    60    59    1
    62   153   150    1
    63   144   143    2
    64    18    19   ar
    65    18    16   ar
    66   126   125    2
    67   138   137    1
    68    73    71    1
    69    19    17   ar
    70    32    31    2
    71    31    38   am
    72    87    92   am
    73    87    86    1
    74   162   161    1
    75   141   142    1
    76   141   134   am
    77   128   129    1
    78   128   127    1
    79   143   142    1
    80    72    71    1
    81   130   129   ar
    82    71    70    2
    83   129   131   ar
    84    16    14   ar
    85   161   158    1
    86    91    89    1
    87   150   149    1
    88   150   151    1
    89    59    56    1
    90   125   132   am
    91   125   124    1
    92   137   136    1
    93   133   134    1
    94   133   132    1
    95   133   136    1
    96   123   124    1
    97    70    69    1
    98    38    39    1
    99   134   135    2
   100    17    15   ar
   101    86    89    1
   102    86    85    1
   103    89    90    1
   104   127   124    1
   105    69    68    1
   106    14    15   ar
   107    14    13    1
   108   158   157    1
   109   158   159    1
   110    56    55    1
   111    56    57    1
   112   151   152    2
   113    68    67    1
   114    39    42    1
   115    39    40    1
   116    12    11    2
   117    85    76   am
   118    42    43    2
   119    13    10    1
   120    43    44    1
   121    11    10    1
   122   159   160    2
   123    44    46   ar
   124    44    45   ar
   125    67    64    1
   126    57    58    2
   127    77    76    2
   128    41    40    2
   129    40    47   am
   130    76    75    1
   131    10     9    1
   132    64    63    1
   133    64    65    1
   134    47    48    1
   135    84    82    1
   136    83    82    1
   137     7     8    1
   138     7     6    1
   139    65    66    2
   140    74    75    1
   141    75    78    1
   142    82    81    2
   143    48    51    1
   144    48    49    1
   145    78    79    1
   146    79    80    1
   147    81    80    1
   148     6     5    1
   149     4     3    2
   150    51    52    1
   151    49    50    2
   152     5     2    1
   153     3     2    1
   154     2     1    1
   155    52    53    1
   156    52    54    1
