@<TRIPOS>MOLECULE
tmp/1a4wB01.pdb
 237 236 0 0 0
SMALL
GASTEIGER

@<TRIPOS>ATOM
      1  N         14.3180   -7.5470    9.1510 N.3    27  LEU27      -0.1245
      2  CA        15.4340   -7.9460   10.0370 C.3    27  LEU27       0.1561
      3  C         15.1010   -7.6840   11.5070 C.2    27  LEU27       0.2260
      4  O         15.3150   -8.5730   12.3640 O.2    27  LEU27      -0.2867
      5  CB        16.6560   -7.1470    9.5910 C.3    27  LEU27       0.0270
      6  CG        17.6530   -7.9030    8.7640 C.3    27  LEU27       0.0019
      7  CD1       17.0430   -9.1610    8.1270 C.3    27  LEU27       0.0001
      8  CD2       18.2280   -6.9800    7.6850 C.3    27  LEU27       0.0001
      9  N         22.3150   -6.9380   18.6660 N.3    43  HIS43      -0.1241
     10  CA        22.1440   -8.3300   18.2040 C.3    43  HIS43       0.1621
     11  C         21.3620   -8.4520   16.8770 C.2    43  HIS43       0.2264
     12  O         21.3130   -9.5440   16.2870 O.2    43  HIS43      -0.2867
     13  CB        21.4930   -9.2730   19.2430 C.3    43  HIS43       0.0745
     14  CG        20.0150   -9.1060   19.3970 C.ar   43  HIS43       0.0817
     15  ND1       19.3700   -8.4080   20.3800 N.ar   43  HIS43      -0.2268
     16  CD2       19.0130   -9.5660   18.5430 C.ar   43  HIS43       0.1154
     17  CE1       18.0460   -8.4880   20.1940 C.ar   43  HIS43       0.1986
     18  NE2       17.8290   -9.1930   19.0880 N.ar   43  HIS43      -0.2212
     19  N         25.7300  -11.1250   15.7210 N.3    47  TYR47      -0.1241
     20  CA        25.4420  -12.2880   16.5920 C.3    47  TYR47       0.1605
     21  C         26.2250  -13.4840   16.0180 C.2    47  TYR47       0.2264
     22  O         25.6870  -14.4040   15.4230 O.2    47  TYR47      -0.2867
     23  CB        23.9570  -12.5670   16.7690 C.3    47  TYR47       0.0534
     24  CG        23.6710  -13.5120   17.9080 C.ar   47  TYR47      -0.0201
     25  CD1       24.1190  -13.1130   19.1750 C.ar   47  TYR47      -0.0009
     26  CD2       23.1620  -14.8100   17.7530 C.ar   47  TYR47      -0.0009
     27  CE1       23.9300  -13.9640   20.2760 C.ar   47  TYR47       0.0417
     28  CE2       23.0100  -15.6650   18.8400 C.ar   47  TYR47       0.0417
     29  CZ        23.4360  -15.2480   20.1050 C.ar   47  TYR47       0.1957
     30  OH        23.3740  -16.0990   21.1700 O.3    47  TYR47      -0.2866
     31  N         25.3020  -17.3410   15.6190 N.3    50  TRP50      -0.1241
     32  CA        24.3660  -17.7110   14.5470 C.3    50  TRP50       0.1605
     33  C         24.9840  -17.2610   13.2370 C.2    50  TRP50       0.2264
     34  O         24.2760  -17.1070   12.2170 O.2    50  TRP50      -0.2867
     35  CB        22.9870  -17.1830   14.8320 C.3    50  TRP50       0.0550
     36  CG        22.1350  -17.8170   15.8720 C.ar   50  TRP50       0.0003
     37  CD1       22.4320  -18.7710   16.8010 C.ar   50  TRP50       0.0946
     38  CD2       20.7290  -17.5100   16.1230 C.ar   50  TRP50       0.0152
     39  NE1       21.3660  -19.0410   17.6450 N.ar   50  TRP50      -0.2442
     40  CE2       20.2930  -18.3050   17.2050 C.ar   50  TRP50       0.0810
     41  CE3       19.8490  -16.6090   15.5380 C.ar   50  TRP50       0.0012
     42  CZ2       18.9950  -18.3060   17.6750 C.ar   50  TRP50       0.0191
     43  CZ3       18.5480  -16.6060   16.0100 C.ar   50  TRP50       0.0001
     44  CH2       18.1180  -17.4170   17.0710 C.ar   50  TRP50       0.0015
     45  N         25.7350  -14.2380   12.1870 N.3    52  LYS52      -0.1245
     46  CA        25.2150  -12.9200   11.7830 C.3    52  LYS52       0.1561
     47  C         26.2230  -11.7980   12.0060 C.2    52  LYS52       0.2260
     48  O         26.7300  -11.6020   13.1350 O.2    52  LYS52      -0.2867
     49  CB        23.9370  -12.6180   12.4970 C.3    52  LYS52       0.0271
     50  CG        23.0150  -11.3970   12.4440 C.3    52  LYS52       0.0035
     51  CD        21.7960  -11.7790   13.3260 C.3    52  LYS52       0.0206
     52  CE        20.7540  -10.7430   13.5230 C.3    52  LYS52       0.1093
     53  NZ        19.7150  -11.1940   14.5000 N.3    52  LYS52      -0.1314
     54  N         28.1460  -10.3800   23.4560 N.3    92  TRP92      -0.1227
     55  CA        27.3690  -11.3700   22.7010 C.3    92  TRP92       0.1737
     56  C         27.7810  -12.7990   23.1410 C.2    92  TRP92       0.2595
     57  O         26.9750  -13.7290   22.8800 O.2    92  TRP92      -0.2718
     58  CB        27.4890  -11.3200   21.1810 C.3    92  TRP92       0.0564
     59  CG        28.8880  -11.3030   20.7080 C.ar   92  TRP92       0.0003
     60  CD1       29.6440  -10.1980   20.4950 C.ar   92  TRP92       0.0946
     61  CD2       29.7570  -12.4380   20.5420 C.ar   92  TRP92       0.0152
     62  NE1       30.8670  -10.5490   20.0360 N.ar   92  TRP92      -0.2442
     63  CE2       30.9770  -11.9250   20.0640 C.ar   92  TRP92       0.0810
     64  CE3       29.5550  -13.8160   20.6060 C.ar   92  TRP92       0.0012
     65  CZ2       32.0310  -12.7640   19.6650 C.ar   92  TRP92       0.0191
     66  CZ3       30.6100  -14.6570   20.2450 C.ar   92  TRP92       0.0001
     67  CH2       31.8300  -14.1370   19.8680 C.ar   92  TRP92       0.0015
     68  N         28.9530  -12.8420   23.7780 N.am   93  ARG93      -0.1966
     69  CA        29.4310  -14.1580   24.2100 C.3    93  ARG93       0.1729
     70  C         28.6370  -14.6980   25.3730 C.2    93  ARG93       0.2616
     71  O         28.6160  -15.9240   25.5140 O.2    93  ARG93      -0.2715
     72  CB        30.9120  -14.2140   24.6300 C.3    93  ARG93       0.0348
     73  CG        31.8860  -13.8270   23.5390 C.3    93  ARG93       0.0492
     74  CD        33.3310  -13.9820   23.8850 C.3    93  ARG93       0.2205
     75  NE        34.1460  -13.8260   22.6590 N.pl3  93  ARG93      -0.0865
     76  CZ        34.5500  -14.9540   22.0300 C.cat  93  ARG93       0.5346
     77  NH1       34.3460  -16.1630   22.5540 N.pl3  93  ARG93       0.1354
     78  NH2       34.9570  -14.8860   20.7780 N.pl3  93  ARG93       0.1354
     79  N         28.0040  -13.8670   26.1810 N.am   94  GLU94      -0.1963
     80  CA        27.3500  -14.3730   27.3750 C.3    94  GLU94       0.1733
     81  C         25.9340  -13.9450   27.6310 C.2    94  GLU94       0.2616
     82  O         25.0730  -14.8390   27.7970 O.2    94  GLU94      -0.2715
     83  CB        28.2460  -13.8940   28.5480 C.3    94  GLU94       0.0429
     84  CG        27.8990  -14.3480   29.9160 C.3    94  GLU94       0.1163
     85  CD        28.4080  -13.4830   31.0440 C.2    94  GLU94       0.3649
     86  OE1       29.3030  -12.6480   30.9530 O.co2  94  GLU94      -0.2457
     87  OE2       27.7290  -13.6640   32.0930 O.co2  94  GLU94      -0.2457
     88  N         25.6610  -12.6500   27.8390 N.am   95  ASN95      -0.1958
     89  CA        24.2990  -12.2690   28.2130 C.3    95  ASN95       0.1819
     90  C         23.7130  -11.1090   27.4030 C.2    95  ASN95       0.2621
     91  O         22.6690  -10.6260   27.8890 O.2    95  ASN95      -0.2715
     92  CB        24.2670  -12.0450   29.7440 C.3    95  ASN95       0.1195
     93  CG        25.2900  -10.9430   30.0830 C.2    95  ASN95       0.2630
     94  OD1       25.4220  -10.5510   31.2440 O.2    95  ASN95      -0.2716
     95  ND2       26.0230  -10.4380   29.1270 N.am   95  ASN95      -0.0877
     96  N         24.2390  -10.7220   26.2860 N.am   96  LEU96      -0.1977
     97  CA        23.8200   -9.5580   25.5100 C.3    96  LEU96       0.1596
     98  C         23.8370   -8.2720   26.3330 C.2    96  LEU96       0.2287
     99  O         22.9640   -7.3830   26.2270 O.2    96  LEU96      -0.2864
    100  CB        22.4100   -9.9040   24.9420 C.3    96  LEU96       0.0297
    101  CG        22.3300  -10.1790   23.4520 C.3    96  LEU96       0.0022
    102  CD1       23.3500  -11.1690   22.9600 C.3    96  LEU96       0.0001
    103  CD2       20.8900  -10.7260   23.2250 C.3    96  LEU96       0.0001
    104  N         20.2130  -16.7730   33.3090 N.3   171  ILE171     -0.1245
    105  CA        21.1470  -15.8220   32.6660 C.3   171  ILE171      0.1561
    106  C         21.5310  -14.7370   33.7170 C.2   171  ILE171      0.2260
    107  O         20.7180  -14.3560   34.5500 O.2   171  ILE171     -0.2867
    108  CB        20.6410  -15.1770   31.3270 C.3   171  ILE171      0.0252
    109  CG1       20.6120  -16.2840   30.2280 C.3   171  ILE171      0.0019
    110  CG2       21.4300  -14.0000   30.7690 C.3   171  ILE171      0.0019
    111  CD1       19.1790  -16.8930   30.1710 C.3   171  ILE171      0.0001
    112  N          4.0540   -9.9670   25.1020 N.3   191  ASP191     -0.1225
    113  CA         5.5310  -10.0020   25.0470 C.3   191  ASP191      0.1805
    114  C          5.9380   -9.5770   23.6330 C.2   191  ASP191      0.2598
    115  O          5.0710   -9.6180   22.7310 O.2   191  ASP191     -0.2718
    116  CB         6.0370  -11.3850   25.4330 C.3   191  ASP191      0.1424
    117  CG         7.5210  -11.4450   25.7680 C.2   191  ASP191      0.3668
    118  OD1        8.2340  -10.4170   25.8180 O.co2 191  ASP191     -0.2456
    119  OD2        8.0620  -12.5730   25.8040 O.co2 191  ASP191     -0.2456
    120  N          7.1990   -9.2320   23.5050 N.am  192  ALA192     -0.1966
    121  CA         7.8700   -9.0610   22.2320 C.3   192  ALA192      0.1728
    122  C          8.1150  -10.5190   21.7430 C.2   192  ALA192      0.2616
    123  O          8.0950  -11.4700   22.5390 O.2   192  ALA192     -0.2715
    124  CB         9.2000   -8.3240   22.3130 C.3   192  ALA192      0.0334
    125  N          8.4620  -10.6650   20.4840 N.am  193  CYS193     -0.1954
    126  CA         8.7670  -12.0030   19.9230 C.3   193  CYS193      0.1843
    127  C          9.7680  -11.7900   18.8290 C.2   193  CYS193      0.2625
    128  O         10.2280  -10.6440   18.6130 O.2   193  CYS193     -0.2714
    129  CB         7.4960  -12.7470   19.4990 C.3   193  CYS193      0.0997
    130  SG         7.6160  -14.5360   19.3580 S.3   193  CYS193     -0.0798
    131  N         10.1260  -12.8920   18.1280 N.am  194  GLU194     -0.1963
    132  CA        11.1240  -12.7280   17.0670 C.3   194  GLU194      0.1733
    133  C         10.6300  -11.7010   16.0300 C.2   194  GLU194      0.2613
    134  O          9.4440  -11.8020   15.7140 O.2   194  GLU194     -0.2715
    135  CB        11.4560  -14.0060   16.2800 C.3   194  GLU194      0.0429
    136  CG        10.4360  -15.1060   16.2280 C.3   194  GLU194      0.1163
    137  CD        10.5550  -16.2580   17.1850 C.2   194  GLU194      0.3649
    138  OE1       11.4470  -16.0680   18.0730 O.co2 194  GLU194     -0.2457
    139  OE2        9.7890  -17.2430   17.1340 O.co2 194  GLU194     -0.2457
    140  N         11.5000  -10.8810   15.4980 N.am  195  GLY195     -0.2012
    141  CA        11.1110   -9.8840   14.4730 C.3   195  GLY195      0.1506
    142  C         10.8670   -8.5880   15.2600 C.3   195  GLY195      0.2054
    143  O         11.1290   -7.5720   14.6050 O.3   195  GLY195     -0.2184
    144  N         12.9000   -7.6720   17.9050 N.3   197  SER197     -0.1217
    145  CA        14.2530   -7.2360   18.3520 C.3   197  SER197      0.1889
    146  C         14.5880   -5.8490   17.8600 C.2   197  SER197      0.2288
    147  O         14.3520   -5.5700   16.6510 O.2   197  SER197     -0.2866
    148  CB        15.3440   -8.1760   17.8080 C.3   197  SER197      0.2089
    149  OG        15.2580   -9.3670   18.5610 O.3   197  SER197     -0.2183
    150  N         14.0110   -3.5350   22.7770 N.3   217  VAL217     -0.1231
    151  CA        13.6860   -4.9750   22.8040 C.3   217  VAL217      0.1692
    152  C         14.9860   -5.7680   22.6800 C.2   217  VAL217      0.2593
    153  O         15.7230   -5.6780   21.6610 O.2   217  VAL217     -0.2718
    154  CB        12.6650   -5.3480   21.6870 C.3   217  VAL217      0.0266
    155  CG1       12.2980   -6.8650   21.7930 C.3   217  VAL217      0.0020
    156  CG2       11.3940   -4.5380   21.8050 C.3   217  VAL217      0.0020
    157  N         15.3210   -6.5220   23.7210 N.am  218  SER218     -0.1938
    158  CA        16.6060   -7.2440   23.7390 C.3   218  SER218      0.2055
    159  C         16.3700   -8.7390   23.6770 C.2   218  SER218      0.2643
    160  O         15.9710   -9.2390   22.6110 O.2   218  SER218     -0.2714
    161  CB        17.4890   -6.8090   24.9360 C.3   218  SER218      0.2130
    162  OG        18.7710   -7.4110   24.8260 O.3   218  SER218     -0.2179
    163  N         16.3730   -9.5300   24.7180 N.am  219  TRP219     -0.1959
    164  CA        16.3080  -11.0000   24.6650 C.3   219  TRP219      0.1771
    165  C         15.1870  -11.4770   25.5300 C.2   219  TRP219      0.2620
    166  O         14.6020  -10.7410   26.3370 O.2   219  TRP219     -0.2715
    167  CB        17.6990  -11.5870   24.9860 C.3   219  TRP219      0.0590
    168  CG        18.1990  -11.2730   26.3620 C.ar  219  TRP219      0.0006
    169  CD1       19.0740  -10.2740   26.7110 C.ar  219  TRP219      0.0946
    170  CD2       17.8510  -11.9270   27.5980 C.ar  219  TRP219      0.0152
    171  NE1       19.3420  -10.2990   28.0480 N.ar  219  TRP219     -0.2442
    172  CE2       18.6400  -11.3180   28.6190 C.ar  219  TRP219      0.0810
    173  CE3       17.1050  -13.0650   27.9310 C.ar  219  TRP219      0.0012
    174  CZ2       18.5560  -11.7470   29.9510 C.ar  219  TRP219      0.0191
    175  CZ3       17.0650  -13.5260   29.2240 C.ar  219  TRP219      0.0001
    176  CH2       17.7660  -12.8530   30.2520 C.ar  219  TRP219      0.0015
    177  N         14.7850  -12.7200   25.3030 N.am  220  GLY220     -0.1940
    178  CA        13.7510  -13.3230   26.1870 C.3   220  GLY220      0.2014
    179  C         13.8690  -14.8300   25.8590 C.2   220  GLY220      0.2639
    180  O         14.4140  -15.1790   24.8010 O.2   220  GLY220     -0.2714
    181  N         13.3530  -15.5680   26.8090 N.am  221  GLU221     -0.1963
    182  CA        13.3680  -17.0600   26.6590 C.3   221  GLU221      0.1733
    183  C         11.9880  -17.4150   26.0950 C.2   221  GLU221      0.2617
    184  O         10.9650  -17.4220   26.7630 O.2   221  GLU221     -0.2715
    185  CB        13.6150  -17.6650   28.0150 C.3   221  GLU221      0.0429
    186  CG        15.0290  -17.3560   28.5900 C.3   221  GLU221      0.1163
    187  CD        15.1280  -17.7120   30.0500 C.2   221  GLU221      0.3649
    188  OE1       14.9030  -18.8050   30.5420 O.co2 221  GLU221     -0.2457
    189  OE2       15.1490  -16.7110   30.7920 O.co2 221  GLU221     -0.2457
    190  N         12.0140  -17.4820   24.7860 N.am  222  GLY222     -0.1940
    191  CA        10.7760  -17.7290   24.0100 C.3   222  GLY222      0.2014
    192  C         10.0030  -16.4030   23.9540 C.2   222  GLY222      0.2635
    193  O         10.6230  -15.3140   24.0830 O.2   222  GLY222     -0.2714
    194  N          8.6790  -16.5820   23.8930 N.am  223  CYS223     -0.2021
    195  CA         7.7860  -15.4250   23.7800 C.3   223  CYS223      0.1398
    196  C          6.5630  -15.6680   24.6090 C.3   223  CYS223      0.2045
    197  O          5.9130  -16.6780   24.2410 O.3   223  CYS223     -0.2185
    198  CB         7.3840  -15.1020   22.3250 C.3   223  CYS223      0.0930
    199  SG         8.6130  -15.2160   21.0590 S.3   223  CYS223     -0.0802
    200  N          5.9630  -16.7150   27.6690 N.3   225  ARG225     -0.1301
    201  CA         5.9530  -17.9360   28.5220 C.3   225  ARG225      0.1248
    202  C          5.4980  -17.6100   29.9170 C.3   225  ARG225      0.2009
    203  O          6.0090  -16.5430   30.3240 O.3   225  ARG225     -0.2188
    204  CB         7.4120  -18.4000   28.6440 C.3   225  ARG225      0.0254
    205  CG         8.0720  -18.7470   27.3350 C.3   225  ARG225      0.0485
    206  CD         7.9960  -20.1940   27.0780 C.3   225  ARG225      0.2205
    207  NE         8.8600  -20.6450   26.0160 N.pl3 225  ARG225     -0.0865
    208  CZ        10.1780  -20.7300   25.9950 C.cat 225  ARG225      0.5346
    209  NH1       10.9410  -20.3480   27.0210 N.pl3 225  ARG225      0.1354
    210  NH2       10.7790  -21.1900   24.8940 N.pl3 225  ARG225      0.1354
    211  N         10.2610  -10.4620   29.2920 N.3   230  GLY230     -0.1210
    212  CA        11.0810   -9.9030   28.1750 C.3   230  GLY230      0.1956
    213  C         12.1670   -8.9850   28.8090 C.2   230  GLY230      0.2612
    214  O         11.8640   -8.3120   29.7900 O.2   230  GLY230     -0.2717
    215  N         13.3330   -9.0840   28.2150 N.am  231  PHE231     -0.1962
    216  CA        14.4850   -8.2400   28.6270 C.3   231  PHE231      0.1771
    217  C         14.6930   -7.1150   27.6000 C.2   231  PHE231      0.2619
    218  O         14.6260   -7.3280   26.3790 O.2   231  PHE231     -0.2715
    219  CB        15.7890   -9.0060   28.9180 C.3   231  PHE231      0.0574
    220  CG        15.6710   -9.7030   30.2690 C.ar  231  PHE231     -0.0200
    221  CD1       14.8900  -10.8390   30.4040 C.ar  231  PHE231     -0.0042
    222  CD2       16.3180   -9.1750   31.4120 C.ar  231  PHE231     -0.0042
    223  CE1       14.7150  -11.4520   31.6490 C.ar  231  PHE231     -0.0003
    224  CE2       16.2010   -9.8430   32.6640 C.ar  231  PHE231     -0.0003
    225  CZ        15.3800  -10.9520   32.7840 C.ar  231  PHE231     -0.0000
    226  N         15.0920   -5.9550   28.1390 N.am  232  TYR232     -0.1974
    227  CA        15.2780   -4.7130   27.3870 C.3   232  TYR232      0.1639
    228  C         16.5700   -4.0160   27.7780 C.2   232  TYR232      0.2290
    229  O         16.9180   -3.9370   28.9650 O.2   232  TYR232     -0.2864
    230  CB        14.1250   -3.7490   27.7700 C.3   232  TYR232      0.0560
    231  CG        12.7700   -4.3360   27.4090 C.ar  232  TYR232     -0.0198
    232  CD1       12.0940   -5.2090   28.2370 C.ar  232  TYR232     -0.0009
    233  CD2       12.3100   -4.1450   26.0660 C.ar  232  TYR232     -0.0009
    234  CE1       10.9180   -5.8260   27.8460 C.ar  232  TYR232      0.0417
    235  CE2       11.0900   -4.6840   25.7340 C.ar  232  TYR232      0.0417
    236  CZ        10.5250   -5.6510   26.5080 C.ar  232  TYR232      0.1957
    237  OH         9.3820   -6.2680   26.0330 O.3   232  TYR232     -0.2866
@<TRIPOS>BOND
     1     8     6    1
     2     7     6    1
     3     6     5    1
     4     1     2    1
     5     5     2    1
     6     2     3    1
     7     3     4    2
     8    46    47    1
     9    46    45    1
    10    46    49    1
    11    47    48    2
    12    34    33    2
    13    50    49    1
    14    50    51    1
    15    33    32    1
    16    51    52    1
    17    52    53    1
    18   141   142    1
    19   141   140    1
    20    32    35    1
    21    32    31    1
    22   143   142    1
    23    35    36    1
    24    22    21    2
    25   140   133   am
    26    41    43   ar
    27    41    38   ar
    28   134   133    2
    29    19    20    1
    30    36    38   ar
    31    36    37   ar
    32    43    44   ar
    33    21    20    1
    34   133   132    1
    35    38    40   ar
    36   136   135    1
    37   136   137    1
    38   135   132    1
    39    12    11    2
    40    20    23    1
    41   147   146    2
    42    23    24    1
    43    37    39   ar
    44    11    10    1
    45   132   131    1
    46    44    42   ar
    47   139   137   ar
    48   137   138   ar
    49    40    39   ar
    50    40    42   ar
    51    26    24   ar
    52    26    28   ar
    53   148   145    1
    54   148   149    1
    55   146   145    1
    56   144   145    1
    57    24    25   ar
    58   131   127   am
    59    10     9    1
    60    10    13    1
    61    16    18   ar
    62    16    14   ar
    63   128   127    2
    64   127   126    1
    65    28    29   ar
    66    18    17   ar
    67    25    27   ar
    68    13    14    1
    69   130   129    1
    70   130   199    1
    71    14    15   ar
    72   129   126    1
    73    65    67   ar
    74    65    63   ar
    75    67    66   ar
    76   126   125    1
    77    62    63   ar
    78    62    60   ar
    79    63    61   ar
    80    29    27   ar
    81    29    30    1
    82    17    15   ar
    83    66    64   ar
    84   125   122   am
    85    60    59   ar
    86    61    64   ar
    87    61    59   ar
    88    59    58    1
    89    78    76    1
    90   199   198    1
    91    58    55    1
    92   153   152    2
    93   154   155    1
    94   154   156    1
    95   154   151    1
    96   122   121    1
    97   122   123    2
    98    76    77    1
    99    76    75    2
   100   121   124    1
   101   121   120    1
   102   198   195    1
   103   160   159    2
   104    75    74    1
   105   152   151    1
   106   152   157   am
   107    55    56    1
   108    55    54    1
   109   115   114    2
   110   150   151    1
   111    57    56    2
   112   102   101    1
   113    56    68   am
   114   103   101    1
   115   101   100    1
   116   120   114   am
   117    73    74    1
   118    73    72    1
   119   114   113    1
   120   159   158    1
   121   159   163   am
   122   157   158    1
   123   158   161    1
   124    68    69    1
   125   195   194    1
   126   195   196    1
   127   194   192   am
   128   192   191    1
   129   192   193    2
   130   191   190    1
   131    69    72    1
   132    69    70    1
   133   197   196    1
   134   164   163    1
   135   164   167    1
   136   164   165    1
   137   190   183   am
   138   180   179    2
   139   162   161    1
   140   210   208    1
   141   100    97    1
   142   167   168    1
   143   113   112    1
   144   113   116    1
   145   177   165   am
   146   177   178    1
   147    70    71    2
   148    70    79   am
   149   116   117    1
   150    97    96    1
   151    97    98    1
   152   165   166    2
   153   235   233   ar
   154   235   236   ar
   155   117   119   ar
   156   117   118   ar
   157   179   178    1
   158   179   181   am
   159   208   207    2
   160   208   209    1
   161   207   206    1
   162   237   236    1
   163   233   231   ar
   164   183   182    1
   165   183   184    2
   166    79    80    1
   167    99    98    2
   168    96    90   am
   169   168   169   ar
   170   168   170   ar
   171   218   217    2
   172   236   234   ar
   173   182   181    1
   174   182   185    1
   175   169   171   ar
   176   206   205    1
   177   205   204    1
   178    80    81    1
   179    80    83    1
   180   227   230    1
   181   227   228    1
   182   227   226    1
   183    90    91    2
   184    90    89    1
   185   231   230    1
   186   231   232   ar
   187   170   173   ar
   188   170   172   ar
   189   217   226   am
   190   217   216    1
   191    81    82    2
   192    81    88   am
   193   200   201    1
   194   228   229    2
   195    88    89    1
   196   234   232   ar
   197   173   175   ar
   198   185   186    1
   199   171   172   ar
   200   212   213    1
   201   212   211    1
   202    89    92    1
   203   215   216    1
   204   215   213   am
   205   201   204    1
   206   201   202    1
   207    83    84    1
   208   186   187    1
   209   172   174   ar
   210   216   219    1
   211   213   214    2
   212   219   220    1
   213    95    93   am
   214   175   176   ar
   215    92    93    1
   216    84    85    1
   217   202   203    1
   218   174   176   ar
   219   187   188   ar
   220   187   189   ar
   221    93    94    2
   222   111   109    1
   223   109   108    1
   224   220   221   ar
   225   220   222   ar
   226   221   223   ar
   227   110   108    1
   228    86    85   ar
   229    85    87   ar
   230   108   105    1
   231   222   224   ar
   232   223   225   ar
   233   224   225   ar
   234   105   104    1
   235   105   106    1
   236   106   107    2
