@<TRIPOS>MOLECULE
tmp/1a53A00.pdb
 176 165 0 0 0
SMALL
GASTEIGER

@<TRIPOS>ATOM
      1  N          1.0070  -25.5500   30.8610 N.3    50  GLU50      -0.1245
      2  CA         0.1740  -25.8870   32.0010 C.3    50  GLU50       0.1567
      3  C         -0.2450  -27.3440   32.0310 C.2    50  GLU50       0.2260
      4  O         -0.5720  -27.9430   30.9960 O.2    50  GLU50      -0.2867
      5  CB        -1.0730  -25.0040   32.0050 C.3    50  GLU50       0.0388
      6  CG        -2.1000  -25.2960   33.0850 C.3    50  GLU50       0.1160
      7  CD        -3.0840  -24.1450   33.2420 C.2    50  GLU50       0.3649
      8  OE1       -2.6800  -23.1070   33.8020 O.co2  50  GLU50      -0.2457
      9  OE2       -4.2470  -24.2650   32.8070 O.co2  50  GLU50      -0.2457
     10  N         -2.9920  -29.9230   33.6780 N.3    52  LYS52      -0.1245
     11  CA        -4.2660  -30.0870   34.3720 C.3    52  LYS52       0.1561
     12  C         -4.9690  -31.2730   33.7220 C.2    52  LYS52       0.2260
     13  O         -5.0780  -31.3360   32.4980 O.2    52  LYS52      -0.2867
     14  CB        -5.1330  -28.8300   34.3030 C.3    52  LYS52       0.0271
     15  CG        -5.5690  -28.4500   32.9400 C.3    52  LYS52       0.0035
     16  CD        -6.2850  -27.1340   32.9560 C.3    52  LYS52       0.0206
     17  CE        -6.3470  -26.5980   31.5460 C.3    52  LYS52       0.1093
     18  NZ        -6.7400  -25.1840   31.5400 N.3    52  LYS52      -0.1314
     19  N         -1.9760  -26.9840   38.1350 N.3    82  LEU82      -0.1245
     20  CA        -3.2500  -26.8050   38.8470 C.3    82  LEU82       0.1561
     21  C         -3.2030  -27.6030   40.1410 C.2    82  LEU82       0.2260
     22  O         -2.8380  -28.7800   40.1280 O.2    82  LEU82      -0.2867
     23  CB        -4.4420  -27.3170   38.0330 C.3    82  LEU82       0.0270
     24  CG        -5.2720  -26.3170   37.2280 C.3    82  LEU82       0.0019
     25  CD1       -5.9660  -25.2970   38.1410 C.3    82  LEU82       0.0001
     26  CD2       -4.3600  -25.6220   36.2480 C.3    82  LEU82       0.0001
     27  N        -10.4950  -29.2610   38.9070 N.3    88  PHE88      -0.1241
     28  CA        -9.3530  -29.4800   38.0450 C.3    88  PHE88       0.1605
     29  C         -8.5960  -30.7520   38.3490 C.2    88  PHE88       0.2264
     30  O         -7.6260  -31.0790   37.6620 O.2    88  PHE88      -0.2867
     31  CB        -8.4290  -28.2570   38.0780 C.3    88  PHE88       0.0534
     32  CG        -9.0690  -27.0190   37.5280 C.ar   88  PHE88      -0.0203
     33  CD1       -9.8190  -26.1810   38.3450 C.ar   88  PHE88      -0.0042
     34  CD2       -8.9600  -26.7070   36.1780 C.ar   88  PHE88      -0.0042
     35  CE1      -10.4490  -25.0430   37.8280 C.ar   88  PHE88      -0.0003
     36  CE2       -9.5840  -25.5760   35.6540 C.ar   88  PHE88      -0.0003
     37  CZ       -10.3320  -24.7480   36.4820 C.ar   88  PHE88      -0.0000
     38  N         -1.1210  -22.8220   40.2340 N.3   109  LYS109     -0.1231
     39  CA        -2.3900  -22.2730   39.8230 C.3   109  LYS109      0.1693
     40  C         -3.5350  -22.8590   40.6580 C.2   109  LYS109      0.2592
     41  O         -3.8150  -24.0680   40.6080 O.2   109  LYS109     -0.2718
     42  CB        -2.6160  -22.5510   38.3410 C.3   109  LYS109      0.0285
     43  CG        -3.5740  -21.5540   37.7110 C.3   109  LYS109      0.0035
     44  CD        -4.1760  -22.1180   36.4620 C.3   109  LYS109      0.0206
     45  CE        -4.4540  -21.0480   35.4430 C.3   109  LYS109      0.1093
     46  NZ        -3.2750  -20.5040   34.7800 N.3   109  LYS109     -0.1314
     47  N         -4.2010  -21.9880   41.4140 N.am  110  ASP110     -0.1960
     48  CA        -5.3020  -22.3740   42.2900 C.3   110  ASP110      0.1840
     49  C         -6.1290  -21.1000   42.5520 C.2   110  ASP110      0.2622
     50  O         -5.8960  -20.0750   41.9020 O.2   110  ASP110     -0.2715
     51  CB        -4.7100  -22.9220   43.5940 C.3   110  ASP110      0.1450
     52  CG        -5.5980  -23.9460   44.2650 C.2   110  ASP110      0.3671
     53  OD1       -6.8380  -23.8260   44.2070 O.co2 110  ASP110     -0.2456
     54  OD2       -5.0450  -24.8850   44.8620 O.co2 110  ASP110     -0.2456
     55  N         -7.0910  -21.1530   43.4730 N.am  111  PHE111     -0.1974
     56  CA        -7.9030  -19.9850   43.8040 C.3   111  PHE111      0.1639
     57  C         -7.4530  -19.5570   45.1850 C.2   111  PHE111      0.2290
     58  O         -8.0080  -19.9750   46.1960 O.2   111  PHE111     -0.2864
     59  CB        -9.3880  -20.3400   43.7630 C.3   111  PHE111      0.0560
     60  CG        -9.8400  -20.7800   42.4050 C.ar  111  PHE111     -0.0200
     61  CD1       -9.5340  -22.0600   41.9410 C.ar  111  PHE111     -0.0042
     62  CD2      -10.5050  -19.9010   41.5590 C.ar  111  PHE111     -0.0042
     63  CE1       -9.8820  -22.4640   40.6510 C.ar  111  PHE111     -0.0003
     64  CE2      -10.8600  -20.2910   40.2660 C.ar  111  PHE111     -0.0003
     65  CZ       -10.5410  -21.5770   39.8100 C.ar  111  PHE111     -0.0000
     66  N         -0.7470  -17.4770   41.3820 N.3   130  LEU130     -0.1245
     67  CA        -1.7140  -16.6950   40.6420 C.3   130  LEU130      0.1561
     68  C         -2.6520  -16.0390   41.6560 C.2   130  LEU130      0.2260
     69  O         -3.0820  -16.6820   42.6130 O.2   130  LEU130     -0.2867
     70  CB        -2.5620  -17.6100   39.7470 C.3   130  LEU130      0.0270
     71  CG        -3.6030  -16.9150   38.8530 C.3   130  LEU130      0.0019
     72  CD1       -2.8810  -16.2980   37.6690 C.3   130  LEU130      0.0001
     73  CD2       -4.6580  -17.8950   38.3800 C.3   130  LEU130      0.0001
     74  N         -6.2240  -13.8420   41.5120 N.3   132  ILE132     -0.1245
     75  CA        -7.3070  -13.4760   40.6070 C.3   132  ILE132      0.1561
     76  C         -8.0760  -12.2760   41.1430 C.2   132  ILE132      0.2260
     77  O         -8.7710  -12.3600   42.1600 O.2   132  ILE132     -0.2867
     78  CB        -8.2690  -14.6500   40.4390 C.3   132  ILE132      0.0252
     79  CG1       -7.4970  -15.8730   39.9330 C.3   132  ILE132      0.0019
     80  CG2       -9.4130  -14.2660   39.5230 C.3   132  ILE132      0.0019
     81  CD1       -8.2290  -17.1930   40.1790 C.3   132  ILE132      0.0001
     82  N         -4.0820  -11.8400   37.6590 N.3   158  GLU158     -0.1245
     83  CA        -4.9850  -12.0440   36.5480 C.3   158  GLU158      0.1567
     84  C         -6.1690  -11.0980   36.4650 C.2   158  GLU158      0.2260
     85  O         -6.9180  -10.9340   37.4290 O.2   158  GLU158     -0.2867
     86  CB        -5.4850  -13.4900   36.5680 C.3   158  GLU158      0.0388
     87  CG        -6.5270  -13.7880   35.5200 C.3   158  GLU158      0.1160
     88  CD        -6.9320  -15.2450   35.4910 C.2   158  GLU158      0.3649
     89  OE1       -6.0560  -16.1060   35.2590 O.co2 158  GLU158     -0.2457
     90  OE2       -8.1290  -15.5290   35.6970 O.co2 158  GLU158     -0.2457
     91  N         -6.6780  -12.9080   31.0120 N.3   179  ASN179     -0.1240
     92  CA        -7.4540  -14.1090   30.7450 C.3   179  ASN179      0.1653
     93  C         -8.6150  -13.8460   29.7900 C.2   179  ASN179      0.2266
     94  O         -9.5250  -13.0790   30.1020 O.2   179  ASN179     -0.2867
     95  CB        -7.9790  -14.6790   32.0650 C.3   179  ASN179      0.1155
     96  CG        -8.5620  -16.0740   31.9130 C.2   179  ASN179      0.2627
     97  OD1       -8.6330  -16.6140   30.8160 O.2   179  ASN179     -0.2716
     98  ND2       -8.9870  -16.6610   33.0220 N.am  179  ASN179     -0.0877
     99  N        -10.7940  -15.9100   29.0280 N.3   181  ARG181     -0.1245
    100  CA       -11.9600  -16.6270   29.4920 C.3   181  ARG181      0.1563
    101  C        -12.4880  -16.0790   30.8040 C.2   181  ARG181      0.2260
    102  O        -11.7440  -15.9150   31.7760 O.2   181  ARG181     -0.2867
    103  CB       -11.6710  -18.1070   29.6770 C.3   181  ARG181      0.0307
    104  CG       -12.9550  -18.8890   29.9650 C.3   181  ARG181      0.0489
    105  CD       -12.6890  -20.2410   30.5620 C.3   181  ARG181      0.2205
    106  NE       -11.9130  -21.0890   29.6620 N.pl3 181  ARG181     -0.0865
    107  CZ       -12.4020  -21.6970   28.5810 C.cat 181  ARG181      0.5346
    108  NH1      -13.6810  -21.5550   28.2500 N.pl3 181  ARG181      0.1354
    109  NH2      -11.6140  -22.4550   27.8280 N.pl3 181  ARG181      0.1354
    110  N        -14.0230  -16.5090   34.0690 N.3   183  LEU183     -0.1245
    111  CA       -14.1100  -17.6200   35.0140 C.3   183  LEU183      0.1561
    112  C        -15.5270  -17.9220   35.4640 C.2   183  LEU183      0.2260
    113  O        -15.8590  -19.0700   35.7440 O.2   183  LEU183     -0.2867
    114  CB       -13.2140  -17.3650   36.2370 C.3   183  LEU183      0.0270
    115  CG       -11.7150  -17.5810   36.0070 C.3   183  LEU183      0.0019
    116  CD1      -10.9160  -17.0900   37.1880 C.3   183  LEU183      0.0001
    117  CD2      -11.4580  -19.0690   35.7780 C.3   183  LEU183      0.0001
    118  N         -3.5730  -15.5020   28.5260 N.3   209  GLU209     -0.1231
    119  CA        -4.0960  -16.7700   29.0210 C.3   209  GLU209      0.1699
    120  C         -5.3930  -17.2170   28.3950 C.2   209  GLU209      0.2593
    121  O         -6.2840  -16.4070   28.1430 O.2   209  GLU209     -0.2718
    122  CB        -4.4050  -16.7200   30.5150 C.3   209  GLU209      0.0402
    123  CG        -3.2780  -16.4620   31.4550 C.3   209  GLU209      0.1161
    124  CD        -3.8010  -16.4250   32.8810 C.2   209  GLU209      0.3649
    125  OE1       -4.1950  -15.3330   33.3290 O.co2 209  GLU209     -0.2457
    126  OE2       -3.8290  -17.4820   33.5470 O.co2 209  GLU209     -0.2457
    127  N         -5.4740  -18.5300   28.1900 N.am  210  SER210     -0.1938
    128  CA        -6.6510  -19.2370   27.6970 C.3   210  SER210      0.2055
    129  C         -6.9600  -19.2870   26.2150 C.2   210  SER210      0.2644
    130  O         -6.7480  -18.3230   25.4930 O.2   210  SER210     -0.2714
    131  CB        -7.9100  -18.7690   28.4390 C.3   210  SER210      0.2130
    132  OG        -7.7540  -18.9140   29.8380 O.3   210  SER210     -0.2179
    133  N         -7.4640  -20.4430   25.7890 N.am  211  GLY211     -0.1939
    134  CA        -7.8800  -20.6660   24.4140 C.3   211  GLY211      0.2014
    135  C         -6.8800  -20.5710   23.2750 C.2   211  GLY211      0.2638
    136  O         -7.2920  -20.4330   22.1260 O.2   211  GLY211     -0.2714
    137  N         -5.5890  -20.6350   23.5610 N.am  212  ILE212     -0.1977
    138  CA        -4.5970  -20.5660   22.5030 C.3   212  ILE212      0.1596
    139  C         -4.3140  -21.9810   21.9950 C.2   212  ILE212      0.2287
    140  O         -3.9300  -22.8490   22.7690 O.2   212  ILE212     -0.2864
    141  CB        -3.2730  -19.9890   23.0120 C.3   212  ILE212      0.0276
    142  CG1       -3.4820  -18.5900   23.5810 C.3   212  ILE212      0.0022
    143  CG2       -2.2490  -19.9690   21.8960 C.3   212  ILE212      0.0022
    144  CD1       -2.2230  -18.0130   24.2010 C.3   212  ILE212      0.0001
    145  N          0.3340  -18.5310   28.2560 N.3   230  LEU230     -0.1231
    146  CA         0.0480  -19.6400   29.1510 C.3   230  LEU230      0.1693
    147  C         -0.8930  -20.5480   28.3750 C.2   230  LEU230      0.2592
    148  O         -2.0250  -20.1680   28.0540 O.2   230  LEU230     -0.2718
    149  CB        -0.6000  -19.1390   30.4410 C.3   230  LEU230      0.0284
    150  CG        -0.4730  -20.1150   31.6190 C.3   230  LEU230      0.0019
    151  CD1       -0.6910  -19.3860   32.9190 C.3   230  LEU230      0.0001
    152  CD2       -1.4630  -21.2310   31.4780 C.3   230  LEU230      0.0001
    153  N         -0.4170  -21.7510   28.0700 N.am  231  ILE231     -0.1966
    154  CA        -1.1910  -22.6970   27.2820 C.3   231  ILE231      0.1727
    155  C         -1.3670  -24.0040   28.0370 C.2   231  ILE231      0.2617
    156  O         -0.3920  -24.5850   28.5050 O.2   231  ILE231     -0.2715
    157  CB        -0.4840  -22.9770   25.9140 C.3   231  ILE231      0.0290
    158  CG1       -0.2510  -21.6600   25.1560 C.3   231  ILE231      0.0022
    159  CG2       -1.3270  -23.9350   25.0710 C.3   231  ILE231      0.0023
    160  CD1        0.7390  -21.7770   23.9940 C.3   231  ILE231      0.0001
    161  N         -2.6140  -24.4490   28.1460 N.am  232  GLY232     -0.1940
    162  CA        -2.9120  -25.6800   28.8460 C.3   232  GLY232      0.2014
    163  C         -3.6020  -26.7530   28.0170 C.2   232  GLY232      0.2640
    164  O         -2.9680  -27.7320   27.6360 O.2   232  GLY232     -0.2714
    165  N         -4.8910  -26.5740   27.7330 N.am  233  SER233     -0.1935
    166  CA        -5.6770  -27.5540   26.9770 C.3   233  SER233      0.2055
    167  C         -5.0770  -28.1110   25.6970 C.2   233  SER233      0.2643
    168  O         -5.0550  -29.3310   25.5150 O.2   233  SER233     -0.2714
    169  CB        -7.0850  -27.0240   26.6890 C.3   233  SER233      0.2130
    170  OG        -7.8550  -27.0130   27.8880 O.3   233  SER233     -0.2179
    171  N         -4.5850  -27.2490   24.8150 N.am  234  SER234     -0.1949
    172  CA        -4.0270  -27.7440   23.5630 C.3   234  SER234      0.1924
    173  C         -2.7630  -28.5780   23.7900 C.2   234  SER234      0.2314
    174  O         -2.5410  -29.5720   23.0900 O.2   234  SER234     -0.2863
    175  CB        -3.7910  -26.5950   22.5720 C.3   234  SER234      0.2116
    176  OG        -2.7940  -25.7230   23.0460 O.3   234  SER234     -0.2180
@<TRIPOS>BOND
     1   143   141    1
     2   139   138    1
     3   139   140    2
     4   136   135    2
     5   138   141    1
     6   138   137    1
     7   175   176    1
     8   175   172    1
     9   141   142    1
    10   174   173    2
    11   135   137   am
    12   135   134    1
    13   172   173    1
    14   172   171    1
    15   142   144    1
    16   160   158    1
    17   134   133    1
    18   171   167   am
    19   159   157    1
    20   158   157    1
    21   130   129    2
    22   168   167    2
    23   167   166    1
    24   133   129   am
    25   157   154    1
    26   129   128    1
    27   169   166    1
    28   169   170    1
    29   166   165    1
    30   154   155    1
    31   154   153    1
    32   164   163    2
    33   128   127    1
    34   128   131    1
    35   165   163   am
    36   109   107    1
    37   163   162    1
    38   155   161   am
    39   155   156    2
    40   148   147    2
    41   153   147   am
    42   121   120    2
    43   161   162    1
    44   127   120   am
    45   108   107    1
    46   145   146    1
    47   147   146    1
    48   120   119    1
    49   131   132    1
    50   118   119    1
    51   107   106    2
    52   119   122    1
    53    99   100    1
    54   146   149    1
    55   100   103    1
    56   100   101    1
    57   106   105    1
    58   103   104    1
    59    93    94    2
    60    93    92    1
    61   104   105    1
    62   149   150    1
    63   122   123    1
    64    92    91    1
    65    92    95    1
    66   101   102    2
    67    97    96    2
    68     1     2    1
    69     4     3    2
    70   123   124    1
    71   152   150    1
    72    18    17    1
    73    17    16    1
    74   150   151    1
    75    96    95    1
    76    96    98   am
    77     2     5    1
    78     2     3    1
    79     5     6    1
    80    13    12    2
    81     9     7   ar
    82   124   125   ar
    83   124   126   ar
    84    15    16    1
    85    15    14    1
    86     6     7    1
    87     7     8   ar
    88    10    11    1
    89    12    11    1
    90   110   111    1
    91    14    11    1
    92    46    45    1
    93   111   112    1
    94   111   114    1
    95    89    88   ar
    96    45    44    1
    97   112   113    2
    98    88    87    1
    99    88    90   ar
   100    87    86    1
   101    36    34   ar
   102    36    37   ar
   103   117   115    1
   104   115   114    1
   105   115   116    1
   106    34    32   ar
   107    26    24    1
   108    44    43    1
   109    84    83    1
   110    84    85    2
   111    37    35   ar
   112    83    86    1
   113    83    82    1
   114    24    23    1
   115    24    25    1
   116    32    31    1
   117    32    33   ar
   118    30    29    2
   119    72    71    1
   120    43    42    1
   121    35    33   ar
   122    23    20    1
   123    28    31    1
   124    28    29    1
   125    28    27    1
   126    19    20    1
   127    42    39    1
   128    73    71    1
   129    20    21    1
   130    71    70    1
   131    80    78    1
   132    70    67    1
   133    65    64   ar
   134    65    63   ar
   135    39    38    1
   136    39    40    1
   137    79    81    1
   138    79    78    1
   139    22    21    2
   140    64    62   ar
   141    78    75    1
   142    75    76    1
   143    75    74    1
   144    41    40    2
   145    67    66    1
   146    67    68    1
   147    63    61   ar
   148    40    47   am
   149    76    77    2
   150    47    48    1
   151    62    60   ar
   152    68    69    2
   153    50    49    2
   154    61    60   ar
   155    48    49    1
   156    48    51    1
   157    60    59    1
   158    49    55   am
   159    55    56    1
   160    51    52    1
   161    59    56    1
   162    56    57    1
   163    53    52   ar
   164    52    54   ar
   165    57    58    2
