@<TRIPOS>MOLECULE
tmp/1a54A00.pdb
 120 115 0 0 0
SMALL
GASTEIGER

@<TRIPOS>ATOM
      1  N         11.5770   41.0400   16.2300 N.3    10  THR10      -0.1218
      2  CA        11.1390   40.3360   17.4430 C.3    10  THR10       0.1862
      3  C         11.9860   39.1150   17.7780 C.2    10  THR10       0.2287
      4  O         12.0190   38.6920   18.9400 O.2    10  THR10      -0.2866
      5  CB         9.6660   39.8840   17.3620 C.3    10  THR10       0.1770
      6  OG1        9.4840   38.9040   16.2910 O.3    10  THR10      -0.2211
      7  CG2        8.6970   41.0310   17.0940 C.3    10  THR10       0.0375
      8  N         14.0660   40.1400   20.6010 N.3    13  ALA13      -0.1231
      9  CA        13.4540   41.0120   21.6120 C.3    13  ALA13       0.1679
     10  C         13.5190   40.5020   23.0420 C.2    13  ALA13       0.2434
     11  O         13.7760   41.3740   23.9140 O.2    13  ALA13      -0.2733
     12  CB        11.9730   41.2670   21.2370 C.3    13  ALA13       0.0304
     13  N         13.4190   39.2380   23.3420 N.am   14  PRO14      -0.2729
     14  CA        13.5560   38.7960   24.7390 C.3    14  PRO14       0.1401
     15  C         14.9070   39.2100   25.2870 C.2    14  PRO14       0.2269
     16  O         14.9420   39.5920   26.4850 O.2    14  PRO14      -0.2865
     17  CB        13.3920   37.2740   24.6540 C.3    14  PRO14       0.0296
     18  CG        12.5460   37.0640   23.4270 C.3    14  PRO14       0.0237
     19  CD        13.0570   38.1100   22.4630 C.3    14  PRO14       0.0939
     20  N         15.1900   42.9310   25.7440 N.3    17  ALA17      -0.1245
     21  CA        14.3820   43.3940   26.8980 C.3    17  ALA17       0.1562
     22  C         15.0830   43.0600   28.1950 C.2    17  ALA17       0.2260
     23  O         15.0980   43.9220   29.0960 O.2    17  ALA17      -0.2867
     24  CB        13.0260   42.7010   26.8170 C.3    17  ALA17       0.0290
     25  N         12.1730   49.3750   23.7270 N.3    33  TYR33      -0.1241
     26  CA        12.3020   48.6290   22.4540 C.3    33  TYR33       0.1605
     27  C         10.9540   48.1340   21.9680 C.2    33  TYR33       0.2264
     28  O         10.2290   47.4210   22.6620 O.2    33  TYR33      -0.2867
     29  CB        13.2650   47.4430   22.6580 C.3    33  TYR33       0.0534
     30  CG        13.4760   46.7080   21.3260 C.ar   33  TYR33      -0.0201
     31  CD1       14.3520   47.2330   20.3940 C.ar   33  TYR33      -0.0009
     32  CD2       12.8270   45.5070   21.0810 C.ar   33  TYR33      -0.0009
     33  CE1       14.5670   46.5760   19.1820 C.ar   33  TYR33       0.0417
     34  CE2       13.0190   44.8330   19.8750 C.ar   33  TYR33       0.0417
     35  CZ        13.8760   45.3930   18.9580 C.ar   33  TYR33       0.1957
     36  OH        14.1210   44.7530   17.7300 O.3    33  TYR33      -0.2866
     37  N          8.9080   45.8140   19.4680 N.3    35  GLY35      -0.1225
     38  CA         9.0720   44.6630   18.5650 C.3    35  GLY35       0.1811
     39  C          7.9900   44.7550   17.4870 C.2    35  GLY35       0.2280
     40  O          6.8850   44.2430   17.6580 O.2    35  GLY35      -0.2866
     41  N          5.7370   36.3340   18.6190 N.3   178  ASP178     -0.1239
     42  CA         4.7160   36.0950   19.6290 C.3   178  ASP178      0.1674
     43  C          3.4160   35.6240   19.0010 C.2   178  ASP178      0.2266
     44  O          2.7380   34.7430   19.5370 O.2   178  ASP178     -0.2867
     45  CB         4.4190   37.4140   20.3750 C.3   178  ASP178      0.1410
     46  CG         4.4770   38.5830   19.3850 C.2   178  ASP178      0.3668
     47  OD1        5.3620   38.6800   18.5190 O.co2 178  ASP178     -0.2456
     48  OD2        3.6320   39.4880   19.5440 O.co2 178  ASP178     -0.2456
     49  N         13.5760   30.2100   18.9060 N.3   196  TYR196     -0.1227
     50  CA        13.5130   29.2040   19.9620 C.3   196  TYR196      0.1736
     51  C         12.8780   29.6710   21.2620 C.2   196  TYR196      0.2596
     52  O         12.0400   28.9740   21.8270 O.2   196  TYR196     -0.2718
     53  CB        14.9590   28.7100   20.2440 C.3   196  TYR196      0.0548
     54  CG        15.0310   27.6280   21.2970 C.ar  196  TYR196     -0.0200
     55  CD1       14.6770   26.3250   21.0220 C.ar  196  TYR196     -0.0009
     56  CD2       15.4930   27.9490   22.5710 C.ar  196  TYR196     -0.0009
     57  CE1       14.7390   25.3600   22.0160 C.ar  196  TYR196      0.0417
     58  CE2       15.5550   26.9750   23.5590 C.ar  196  TYR196      0.0417
     59  CZ        15.1930   25.6840   23.2670 C.ar  196  TYR196      0.1957
     60  OH        15.2480   24.7080   24.2630 O.3   196  TYR196     -0.2866
     61  N         13.2910   30.8370   21.7580 N.am  197  CYS197     -0.1956
     62  CA        12.7140   31.3730   22.9840 C.3   197  CYS197      0.1843
     63  C         11.2060   31.3260   23.0400 C.2   197  CYS197      0.2625
     64  O         10.5930   31.0490   24.0840 O.2   197  CYS197     -0.2714
     65  CB        13.0720   32.8780   22.9620 C.3   197  CYS197      0.0997
     66  SG        12.8660   33.6420   24.5870 S.3   197  CYS197     -0.0797
     67  N         10.5550   31.7130   21.9260 N.am  198  TYR198     -0.1974
     68  CA         9.1050   31.7740   21.9050 C.3   198  TYR198      0.1639
     69  C          8.4580   30.3830   22.0070 C.2   198  TYR198      0.2290
     70  O          7.3350   30.2930   22.5290 O.2   198  TYR198     -0.2864
     71  CB         8.6950   32.4700   20.5900 C.3   198  TYR198      0.0560
     72  CG         9.0500   33.9630   20.5870 C.ar  198  TYR198     -0.0198
     73  CD1        8.1600   34.9010   21.0680 C.ar  198  TYR198     -0.0009
     74  CD2       10.2910   34.3760   20.1100 C.ar  198  TYR198     -0.0009
     75  CE1        8.4810   36.2450   21.0790 C.ar  198  TYR198      0.0417
     76  CE2       10.6310   35.7260   20.1050 C.ar  198  TYR198      0.0417
     77  CZ         9.7230   36.6450   20.5790 C.ar  198  TYR198      0.1957
     78  OH        10.0330   37.9930   20.5910 O.3   198  TYR198     -0.2866
     79  N          9.9780   27.8080   23.7670 N.3   200  LYS200     -0.1231
     80  CA        10.2590   27.4130   25.1690 C.3   200  LYS200      0.1696
     81  C          9.4080   28.2110   26.1240 C.2   200  LYS200      0.2592
     82  O          8.7790   27.6630   27.0470 O.2   200  LYS200     -0.2718
     83  CB        11.7670   27.5440   25.4500 C.3   200  LYS200      0.0331
     84  CG        12.3100   26.9750   26.7710 C.3   200  LYS200      0.0295
     85  CD        13.8440   26.9670   26.7790 C.2   200  LYS200     -0.0067
     86  CE        14.5010   26.5050   28.0560 C.2   200  LYS200      0.1012
     87  NZ        15.9890   26.7770   28.1590 N.pl3 200  LYS200     -0.1270
     88  N          9.2690   29.5230   25.9530 N.am  201  GLN201     -0.1979
     89  CA         8.4930   30.4120   26.7940 C.3   201  GLN201      0.1601
     90  C          7.0400   29.9740   26.9350 C.2   201  GLN201      0.2287
     91  O          6.4780   30.0050   28.0370 O.2   201  GLN201     -0.2864
     92  CB         8.4720   31.8430   26.2230 C.3   201  GLN201      0.0394
     93  CG         7.6230   32.8100   27.0450 C.3   201  GLN201      0.0908
     94  CD         7.7260   34.2330   26.5550 C.2   201  GLN201      0.2608
     95  OE1        8.3550   35.0520   27.1870 O.2   201  GLN201     -0.2717
     96  NE2        7.0700   34.5400   25.4490 N.am  201  GLN201     -0.0878
     97  N         21.3170   32.5810   29.0380 N.3   290  ASP290     -0.1225
     98  CA        20.1990   32.1800   29.8660 C.3   290  ASP290      0.1805
     99  C         18.9300   32.0760   29.0430 C.2   290  ASP290      0.2598
    100  O         18.0910   31.2200   29.2680 O.2   290  ASP290     -0.2718
    101  CB        19.9120   33.1880   30.9860 C.3   290  ASP290      0.1424
    102  CG        20.9210   33.1790   32.1180 C.2   290  ASP290      0.3668
    103  OD1       21.7710   32.2750   32.2110 O.co2 290  ASP290     -0.2456
    104  OD2       20.7890   34.1600   32.8850 O.co2 290  ASP290     -0.2456
    105  N         18.7860   32.9690   28.0340 N.am  291  LEU291     -0.1966
    106  CA        17.6760   32.9870   27.1240 C.3   291  LEU291      0.1728
    107  C         17.9580   32.1930   25.8540 C.2   291  LEU291      0.2616
    108  O         17.1530   32.2460   24.9120 O.2   291  LEU291     -0.2715
    109  CB        17.3620   34.4650   26.7960 C.3   291  LEU291      0.0311
    110  CG        16.9360   35.2840   28.0400 C.3   291  LEU291      0.0022
    111  CD1       16.5940   36.7200   27.6660 C.3   291  LEU291      0.0001
    112  CD2       15.8010   34.6540   28.8130 C.3   291  LEU291      0.0001
    113  N         18.9370   31.2910   25.8680 N.am  292  ASP292     -0.1971
    114  CA        19.2660   30.3860   24.7660 C.3   292  ASP292      0.1709
    115  C         19.6740   31.0640   23.4660 C.2   292  ASP292      0.2293
    116  O         19.4470   30.5140   22.3750 O.2   292  ASP292     -0.2864
    117  CB        18.0640   29.4330   24.5660 C.3   292  ASP292      0.1436
    118  CG        17.8730   28.5990   25.8310 C.2   292  ASP292      0.3671
    119  OD1       18.7990   27.8640   26.2140 O.co2 292  ASP292     -0.2456
    120  OD2       16.7960   28.7680   26.4080 O.co2 292  ASP292     -0.2456
@<TRIPOS>BOND
     1     1     2    1
     2     6     5    1
     3     7     5    1
     4     5     2    1
     5     2     3    1
     6    39    40    2
     7    39    38    1
     8    36    35    1
     9     3     4    2
    10    47    46   ar
    11    38    37    1
    12    41    42    1
    13    49    50    1
    14    35    33   ar
    15    35    34   ar
    16    43    44    2
    17    43    42    1
    18    33    31   ar
    19    46    48   ar
    20    46    45    1
    21    42    45    1
    22    34    32   ar
    23    50    53    1
    24    50    51    1
    25    76    74   ar
    26    76    77   ar
    27    74    72   ar
    28    53    54    1
    29    31    30   ar
    30    77    78    1
    31    77    75   ar
    32    72    71    1
    33    72    73   ar
    34    71    68    1
    35     8     9    1
    36    55    54   ar
    37    55    57   ar
    38    73    75   ar
    39    32    30   ar
    40    12     9    1
    41    51    61   am
    42    51    52    2
    43    54    56   ar
    44    30    29    1
    45     9    10    1
    46    61    62    1
    47    68    67    1
    48    68    69    1
    49    67    63   am
    50    27    26    1
    51    27    28    2
    52    69    70    2
    53    57    59   ar
    54   116   115    2
    55    26    29    1
    56    26    25    1
    57    19    13    1
    58    19    18    1
    59    56    58   ar
    60    65    62    1
    61    65    66    1
    62    62    63    1
    63    63    64    2
    64    10    13   am
    65    10    11    2
    66    59    58   ar
    67    59    60    1
    68    13    14    1
    69    18    17    1
    70   115   114    1
    71    79    80    1
    72   117   114    1
    73   117   118    1
    74    17    14    1
    75    14    15    1
    76   114   113    1
    77   108   107    2
    78    80    83    1
    79    80    81    1
    80    15    16    2
    81    96    94   am
    82    83    84    1
    83    20    21    1
    84   118   119   ar
    85   118   120   ar
    86   107   113   am
    87   107   106    1
    88    88    81   am
    89    88    89    1
    90    81    82    2
    91    92    89    1
    92    92    93    1
    93    94    93    1
    94    94    95    2
    95    84    85    1
    96    85    86    2
    97    89    90    1
    98   109   106    1
    99   109   110    1
   100    24    21    1
   101    21    22    1
   102    90    91    2
   103   106   105    1
   104   111   110    1
   105   105    99   am
   106   110   112    1
   107    86    87    1
   108    22    23    2
   109    97    98    1
   110    99   100    2
   111    99    98    1
   112    98   101    1
   113   101   102    1
   114   102   103   ar
   115   102   104   ar
