@<TRIPOS>MOLECULE
tmp/1a59A00.pdb
 161 155 0 0 0
SMALL
GASTEIGER

@<TRIPOS>ATOM
      1  N        -28.4600   52.5840   91.9530 N.3   218  PRO218     -0.2102
      2  CA       -27.1160   52.3320   91.4280 C.3   218  PRO218      0.1504
      3  C        -26.0990   53.4020   91.8030 C.2   218  PRO218      0.2576
      4  O        -24.8930   53.1520   91.7870 O.2   218  PRO218     -0.2718
      5  CB       -27.3500   52.2460   89.9180 C.3   218  PRO218      0.0282
      6  CG       -28.5670   53.1120   89.7000 C.3   218  PRO218      0.0208
      7  CD       -29.4370   52.7070   90.8580 C.3   218  PRO218      0.0893
      8  N        -26.5890   54.5920   92.1380 N.am  219  LEU219     -0.1966
      9  CA       -25.7240   55.6980   92.5520 C.3   219  LEU219      0.1728
     10  C        -25.3650   55.5860   94.0320 C.2   219  LEU219      0.2616
     11  O        -24.4400   56.2420   94.5090 O.2   219  LEU219     -0.2715
     12  CB       -26.4210   57.0330   92.2910 C.3   219  LEU219      0.0311
     13  CG       -25.9760   57.8370   91.0700 C.3   219  LEU219      0.0022
     14  CD1      -25.6850   56.9360   89.8750 C.3   219  LEU219      0.0001
     15  CD2      -27.0370   58.8690   90.7460 C.3   219  LEU219      0.0001
     16  N        -26.1050   54.7480   94.7520 N.am  220  HIS220     -0.1973
     17  CA       -25.8770   54.5330   96.1740 C.3   220  HIS220      0.1656
     18  C        -25.4310   53.0720   96.3940 C.2   220  HIS220      0.2291
     19  O        -24.4950   52.5990   95.7390 O.2   220  HIS220     -0.2864
     20  CB       -27.1620   54.8630   96.9560 C.3   220  HIS220      0.0771
     21  CG       -26.9490   55.0930   98.4230 C.ar  220  HIS220      0.0820
     22  ND1      -25.7000   55.2090   98.9930 N.ar  220  HIS220     -0.2267
     23  CD2      -27.8350   55.2280   99.4390 C.ar  220  HIS220      0.1154
     24  CE1      -25.8240   55.4020  100.2940 C.ar  220  HIS220      0.1986
     25  NE2      -27.1090   55.4170  100.5890 N.ar  220  HIS220     -0.2212
     26  N        -24.6940   50.1990   93.7540 N.3   223  ALA223     -0.1245
     27  CA       -23.4360   50.1590   93.0150 C.3   223  ALA223      0.1562
     28  C        -22.6810   48.8520   93.2090 C.2   223  ALA223      0.2260
     29  O        -21.9310   48.4570   92.3230 O.2   223  ALA223     -0.2867
     30  CB       -22.5420   51.3390   93.3920 C.3   223  ALA223      0.0290
     31  N        -17.6590   55.1810   78.7580 N.3   257  LEU257     -0.1245
     32  CA       -17.2370   56.5730   78.9170 C.3   257  LEU257      0.1561
     33  C        -17.5910   57.4480   77.7220 C.2   257  LEU257      0.2260
     34  O        -18.0350   58.5860   77.8930 O.2   257  LEU257     -0.2867
     35  CB       -15.7340   56.6480   79.2070 C.3   257  LEU257      0.0270
     36  CG       -15.3310   57.0500   80.6300 C.3   257  LEU257      0.0019
     37  CD1      -16.1120   56.2540   81.6570 C.3   257  LEU257      0.0001
     38  CD2      -13.8400   56.8520   80.8210 C.3   257  LEU257      0.0001
     39  N        -21.6830   57.4850   80.0240 N.3   261  LYS261     -0.1231
     40  CA       -22.1800   56.6390   81.1090 C.3   261  LYS261      0.1693
     41  C        -21.2590   56.7020   82.3210 C.2   261  LYS261      0.2592
     42  O        -20.0550   56.9270   82.1920 O.2   261  LYS261     -0.2718
     43  CB       -22.2420   55.1680   80.6760 C.3   261  LYS261      0.0285
     44  CG       -23.3080   54.7660   79.6780 C.3   261  LYS261      0.0035
     45  CD       -23.0420   53.3190   79.2760 C.3   261  LYS261      0.0206
     46  CE       -24.0440   52.7860   78.2690 C.3   261  LYS261      0.1093
     47  NZ       -25.3630   52.4860   78.8900 N.3   261  LYS261     -0.1314
     48  N        -21.8250   56.4730   83.4990 N.am  262  LYS262     -0.1966
     49  CA       -21.0270   56.4480   84.7140 C.3   262  LYS262      0.1728
     50  C        -20.6390   55.0040   84.9940 C.2   262  LYS262      0.2616
     51  O        -21.4010   54.0810   84.6970 O.2   262  LYS262     -0.2715
     52  CB       -21.8020   57.0180   85.9030 C.3   262  LYS262      0.0311
     53  CG       -21.7000   58.5260   86.0280 C.3   262  LYS262      0.0038
     54  CD       -22.3050   58.9690   87.3290 C.3   262  LYS262      0.0206
     55  CE       -22.1160   60.4420   87.5670 C.3   262  LYS262      0.1093
     56  NZ       -22.7720   60.8100   88.8630 N.3   262  LYS262     -0.1314
     57  N        -19.4220   54.8020   85.4850 N.am  263  VAL263     -0.1963
     58  CA       -18.9710   53.4590   85.8080 C.3   263  VAL263      0.1727
     59  C        -19.1560   53.2890   87.3110 C.2   263  VAL263      0.2616
     60  O        -18.5700   54.0250   88.1080 O.2   263  VAL263     -0.2715
     61  CB       -17.4920   53.2200   85.3950 C.3   263  VAL263      0.0290
     62  CG1      -17.0910   51.7900   85.6950 C.3   263  VAL263      0.0023
     63  CG2      -17.2980   53.5150   83.9090 C.3   263  VAL263      0.0023
     64  N        -20.0380   52.3690   87.6890 N.am  264  MET264     -0.1963
     65  CA       -20.3220   52.1140   89.0950 C.3   264  MET264      0.1736
     66  C        -19.1520   51.5230   89.8560 C.2   264  MET264      0.2617
     67  O        -18.3810   50.7240   89.3240 O.2   264  MET264     -0.2715
     68  CB       -21.5520   51.2220   89.2460 C.3   264  MET264      0.0427
     69  CG       -22.8210   51.9870   89.5860 C.3   264  MET264      0.0599
     70  SD       -23.5380   52.8960   88.2260 S.3   264  MET264     -0.1393
     71  CE       -22.8400   54.4310   88.3560 C.3   264  MET264      0.0692
     72  N        -19.0400   51.9190   91.1170 N.am  265  GLY265     -0.1940
     73  CA       -17.9600   51.4430   91.9610 C.3   265  GLY265      0.2014
     74  C        -16.8020   52.4190   91.9840 C.2   265  GLY265      0.2639
     75  O        -15.7580   52.1300   92.5580 O.2   265  GLY265     -0.2714
     76  N        -16.9950   53.5780   91.3550 N.am  266  PHE266     -0.1959
     77  CA       -15.9730   54.6160   91.2890 C.3   266  PHE266      0.1771
     78  C        -16.5620   55.9800   91.6210 C.2   266  PHE266      0.2620
     79  O        -17.6520   56.3110   91.1740 O.2   266  PHE266     -0.2715
     80  CB       -15.3500   54.6590   89.8910 C.3   266  PHE266      0.0574
     81  CG       -14.5540   53.4340   89.5460 C.ar  266  PHE266     -0.0200
     82  CD1      -15.1720   52.3230   88.9830 C.ar  266  PHE266     -0.0042
     83  CD2      -13.1920   53.3720   89.8290 C.ar  266  PHE266     -0.0042
     84  CE1      -14.4470   51.1690   88.7140 C.ar  266  PHE266     -0.0003
     85  CE2      -12.4620   52.2230   89.5640 C.ar  266  PHE266     -0.0003
     86  CZ       -13.0910   51.1210   89.0080 C.ar  266  PHE266     -0.0000
     87  N        -15.8330   56.7620   92.4150 N.am  267  GLY267     -0.1940
     88  CA       -16.2880   58.0910   92.7890 C.3   267  GLY267      0.2014
     89  C        -17.0400   58.1430   94.1060 C.2   267  GLY267      0.2639
     90  O        -17.5860   57.1470   94.5760 O.2   267  GLY267     -0.2714
     91  N        -17.0930   59.3260   94.6970 N.am  268  HIS268     -0.1959
     92  CA       -17.7750   59.4970   95.9650 C.3   268  HIS268      0.1787
     93  C        -18.0750   60.9710   96.1740 C.2   268  HIS268      0.2620
     94  O        -17.2870   61.8260   95.7690 O.2   268  HIS268     -0.2715
     95  CB       -16.8870   58.9880   97.0970 C.3   268  HIS268      0.0785
     96  CG       -17.6240   58.7560   98.3720 C.ar  268  HIS268      0.0821
     97  ND1      -18.0970   57.5160   98.7380 N.ar  268  HIS268     -0.2267
     98  CD2      -18.0060   59.6100   99.3510 C.ar  268  HIS268      0.1154
     99  CE1      -18.7380   57.6160   99.8890 C.ar  268  HIS268      0.1986
    100  NE2      -18.6990   58.8750  100.2810 N.ar  268  HIS268     -0.2212
    101  N        -19.2100   61.2650   96.8060 N.am  269  ARG269     -0.1977
    102  CA       -19.5930   62.6470   97.0660 C.3   269  ARG269      0.1597
    103  C        -18.6320   63.3420   98.0230 C.2   269  ARG269      0.2287
    104  O        -18.3490   64.5350   97.8710 O.2   269  ARG269     -0.2864
    105  CB       -21.0220   62.7170   97.6220 C.3   269  ARG269      0.0334
    106  CG       -21.4170   64.0810   98.2400 C.3   269  ARG269      0.0492
    107  CD       -21.2930   65.2380   97.2570 C.3   269  ARG269      0.2205
    108  NE       -22.0960   65.0360   96.0570 N.pl3 269  ARG269     -0.0865
    109  CZ       -23.3980   65.2980   95.9730 C.cat 269  ARG269      0.5346
    110  NH1      -24.0550   65.7760   97.0240 N.pl3 269  ARG269      0.1354
    111  NH2      -24.0430   65.0790   94.8340 N.pl3 269  ARG269      0.1354
    112  N        -12.5640   62.4810   97.9610 N.3   272  LYS272     -0.1245
    113  CA       -11.9960   62.9910   96.7190 C.3   272  LYS272      0.1561
    114  C        -10.5980   62.4220   96.4710 C.2   272  LYS272      0.2260
    115  O        -10.0460   62.5700   95.3810 O.2   272  LYS272     -0.2867
    116  CB       -11.9360   64.5240   96.7520 C.3   272  LYS272      0.0271
    117  CG       -13.2880   65.2050   96.9470 C.3   272  LYS272      0.0035
    118  CD       -14.3040   64.6680   95.9550 C.3   272  LYS272      0.0206
    119  CE       -15.6660   65.3150   96.1180 C.3   272  LYS272      0.1093
    120  NZ       -16.6340   64.7220   95.1450 N.3   272  LYS272     -0.1314
    121  N         -9.8080   53.5360   84.7340 N.3   308  MET308     -0.1245
    122  CA       -10.6030   54.6380   85.2680 C.3   308  MET308      0.1570
    123  C         -9.7110   55.7510   85.7710 C.2   308  MET308      0.2261
    124  O         -9.9870   56.9220   85.5430 O.2   308  MET308     -0.2867
    125  CB       -11.5180   54.1640   86.3960 C.3   308  MET308      0.0387
    126  CG       -12.8410   53.5960   85.9130 C.3   308  MET308      0.0595
    127  SD       -13.8150   54.7980   85.0050 S.3   308  MET308     -0.1393
    128  CE       -14.5820   55.7170   86.3170 C.3   308  MET308      0.0692
    129  N        -10.1870   59.1210   83.9010 N.3   312  LYS312     -0.1245
    130  CA       -10.9270   60.1080   84.6860 C.3   312  LYS312      0.1561
    131  C        -10.3470   60.5200   86.0350 C.2   312  LYS312      0.2260
    132  O        -10.9320   61.3550   86.7240 O.2   312  LYS312     -0.2867
    133  CB       -12.3590   59.6060   84.9130 C.3   312  LYS312      0.0271
    134  CG       -13.2050   59.4440   83.6570 C.3   312  LYS312      0.0035
    135  CD       -13.6530   60.7890   83.1050 C.3   312  LYS312      0.0206
    136  CE       -14.5440   61.5460   84.0910 C.3   312  LYS312      0.1093
    137  NZ       -15.0230   62.8640   83.5510 N.3   312  LYS312     -0.1314
    138  N        -10.4290   59.0320   88.7420 N.3   314  ILE314     -0.1245
    139  CA       -11.4300   58.6920   89.7520 C.3   314  ILE314      0.1561
    140  C        -11.0700   57.3240   90.3320 C.2   314  ILE314      0.2260
    141  O        -10.8940   56.3520   89.5940 O.2   314  ILE314     -0.2867
    142  CB       -12.8550   58.6400   89.1430 C.3   314  ILE314      0.0252
    143  CG1      -13.2400   60.0100   88.5820 C.3   314  ILE314      0.0019
    144  CG2      -13.8620   58.2310   90.1890 C.3   314  ILE314      0.0019
    145  CD1      -14.5850   60.0340   87.8930 C.3   314  ILE314      0.0001
    146  N        -14.6020   53.0440   94.9510 N.3   317  ASN317     -0.1240
    147  CA       -15.1770   53.2070   96.2730 C.3   317  ASN317      0.1653
    148  C        -15.3870   51.8100   96.8460 C.2   317  ASN317      0.2266
    149  O        -15.0910   50.8150   96.1840 O.2   317  ASN317     -0.2867
    150  CB       -16.4740   54.0440   96.2610 C.3   317  ASN317      0.1155
    151  CG       -17.5290   53.5190   95.2950 C.2   317  ASN317      0.2627
    152  OD1      -17.9790   54.2420   94.4090 O.2   317  ASN317     -0.2716
    153  ND2      -17.9590   52.2890   95.4910 N.am  317  ASN317     -0.0877
    154  N        -17.8320   49.8020   97.1960 N.3   319  ASP319     -0.1239
    155  CA       -18.6250   48.8490   96.4180 C.3   319  ASP319      0.1674
    156  C        -17.8220   48.1070   95.3620 C.2   319  ASP319      0.2266
    157  O        -18.2040   47.0130   94.9540 O.2   319  ASP319     -0.2867
    158  CB       -19.8080   49.5420   95.7440 C.3   319  ASP319      0.1410
    159  CG       -20.7800   50.1540   96.7380 C.2   319  ASP319      0.3668
    160  OD1      -21.0150   49.5580   97.8100 O.co2 319  ASP319     -0.2456
    161  OD2      -21.3230   51.2360   96.4280 O.co2 319  ASP319     -0.2456
@<TRIPOS>BOND
     1    33    34    2
     2    33    32    1
     3    46    47    1
     4    46    45    1
     5    31    32    1
     6    32    35    1
     7    35    36    1
     8    45    44    1
     9    44    43    1
    10    39    40    1
    11    36    38    1
    12    36    37    1
    13    43    40    1
    14    40    41    1
    15    42    41    2
    16    41    48   am
    17   135   134    1
    18   135   136    1
    19    48    49    1
    20   137   136    1
    21   134   133    1
    22   129   130    1
    23    63    61    1
    24   130   133    1
    25   130   131    1
    26    51    50    2
    27    49    50    1
    28    49    52    1
    29   121   122    1
    30    50    57   am
    31   127   126    1
    32   127   128    1
    33   122   123    1
    34   122   125    1
    35    61    62    1
    36    61    58    1
    37    57    58    1
    38   124   123    2
    39    58    59    1
    40    52    53    1
    41   126   125    1
    42    53    54    1
    43   131   132    2
    44    59    64   am
    45    59    60    2
    46    54    55    1
    47    55    56    1
    48    64    65    1
    49   145   143    1
    50    70    71    1
    51    70    69    1
    52   143   142    1
    53    84    82   ar
    54    84    86   ar
    55   138   139    1
    56    82    81   ar
    57    86    85   ar
    58    65    68    1
    59    65    66    1
    60   142   139    1
    61   142   144    1
    62    68    69    1
    63    67    66    2
    64    81    83   ar
    65    81    80    1
    66    85    83   ar
    67   141   140    2
    68     6     5    1
    69     6     7    1
    70   139   140    1
    71    66    72   am
    72    14    13    1
    73    80    77    1
    74     5     2    1
    75    15    13    1
    76     7     1    1
    77    13    12    1
    78    72    73    1
    79    79    78    2
    80    77    76    1
    81    77    78    1
    82    76    74   am
    83     2     3    1
    84     2     1    1
    85    78    87   am
    86     4     3    2
    87     3     8   am
    88    73    74    1
    89    74    75    2
    90     8     9    1
    91    12     9    1
    92    29    28    2
    93    87    88    1
    94     9    10    1
    95    88    89    1
    96    27    28    1
    97    27    30    1
    98    27    26    1
    99    10    11    2
   100    10    16   am
   101    89    90    2
   102    89    91   am
   103   152   151    2
   104    91    92    1
   105    16    17    1
   106   111   109    1
   107   146   147    1
   108   157   156    2
   109   120   119    1
   110   151   153   am
   111   151   150    1
   112   156   155    1
   113   115   114    2
   114    19    18    2
   115   158   155    1
   116   158   159    1
   117    94    93    2
   118   118   119    1
   119   118   117    1
   120    92    93    1
   121    92    95    1
   122   109   108    2
   123   109   110    1
   124   108   107    1
   125    93   101   am
   126    17    18    1
   127    17    20    1
   128   149   148    2
   129   150   147    1
   130   147   148    1
   131   155   154    1
   132   161   159   ar
   133   114   113    1
   134   113   116    1
   135   113   112    1
   136   159   160   ar
   137   116   117    1
   138   101   102    1
   139    20    21    1
   140   102   105    1
   141   102   103    1
   142    95    96    1
   143   107   106    1
   144   105   106    1
   145   104   103    2
   146    96    97   ar
   147    96    98   ar
   148    21    22   ar
   149    21    23   ar
   150    97    99   ar
   151    22    24   ar
   152    98   100   ar
   153    23    25   ar
   154    99   100   ar
   155    24    25   ar
