@<TRIPOS>MOLECULE
tmp/1a59A01.pdb
 138 134 0 0 0
SMALL
GASTEIGER

@<TRIPOS>ATOM
      1  N        -19.3690   48.5540  106.0340 N.3   182  TYR182     -0.1241
      2  CA       -20.6440   49.0660  105.5380 C.3   182  TYR182      0.1605
      3  C        -21.5630   49.6110  106.6370 C.2   182  TYR182      0.2264
      4  O        -22.5920   50.2180  106.3430 O.2   182  TYR182     -0.2867
      5  CB       -21.3960   47.9360  104.8330 C.3   182  TYR182      0.0534
      6  CG       -21.0910   47.7500  103.3680 C.ar  182  TYR182     -0.0201
      7  CD1      -20.9850   48.8440  102.5090 C.ar  182  TYR182     -0.0009
      8  CD2      -20.9880   46.4720  102.8240 C.ar  182  TYR182     -0.0009
      9  CE1      -20.7960   48.6630  101.1410 C.ar  182  TYR182      0.0417
     10  CE2      -20.7980   46.2830  101.4640 C.ar  182  TYR182      0.0417
     11  CZ       -20.7080   47.3780  100.6290 C.ar  182  TYR182      0.1957
     12  OH       -20.5700   47.1870   99.2770 O.3   182  TYR182     -0.2866
     13  N        -21.7880   55.6190  107.8100 N.3   185  HIS185     -0.1241
     14  CA       -21.1030   56.5770  106.9630 C.3   185  HIS185      0.1621
     15  C        -21.7370   57.9590  106.8510 C.2   185  HIS185      0.2264
     16  O        -22.1270   58.3860  105.7640 O.2   185  HIS185     -0.2867
     17  CB       -20.8900   55.9870  105.5690 C.3   185  HIS185      0.0745
     18  CG       -19.6530   56.4890  104.9000 C.ar  185  HIS185      0.0817
     19  ND1      -18.4140   56.4070  105.4980 N.ar  185  HIS185     -0.2268
     20  CD2      -19.4620   57.1070  103.7180 C.ar  185  HIS185      0.1154
     21  CE1      -17.5130   56.9600  104.7060 C.ar  185  HIS185      0.1986
     22  NE2      -18.1220   57.3910  103.6190 N.ar  185  HIS185     -0.2212
     23  N        -25.1160   59.9820  104.2460 N.3   188  ASN188     -0.1225
     24  CA       -25.2620   59.4710  102.8870 C.3   188  ASN188      0.1785
     25  C        -26.7560   59.5140  102.5820 C.2   188  ASN188      0.2597
     26  O        -27.5610   59.6990  103.4970 O.2   188  ASN188     -0.2718
     27  CB       -24.7190   58.0430  102.7800 C.3   188  ASN188      0.1169
     28  CG       -25.2140   57.1480  103.8830 C.2   188  ASN188      0.2627
     29  OD1      -24.6000   57.0550  104.9530 O.2   188  ASN188     -0.2716
     30  ND2      -26.3240   56.4760  103.6360 N.am  188  ASN188     -0.0877
     31  N        -27.1330   59.3240  101.3180 N.am  189  ALA189     -0.1979
     32  CA       -28.5400   59.3870  100.9240 C.3   189  ALA189      0.1597
     33  C        -29.5200   58.5360  101.7480 C.2   189  ALA189      0.2287
     34  O        -30.5620   59.0350  102.1680 O.2   189  ALA189     -0.2864
     35  CB       -28.6920   59.0790   99.4340 C.3   189  ALA189      0.0319
     36  N        -26.5890   54.5920   92.1380 N.3   219  LEU219     -0.1231
     37  CA       -25.7240   55.6980   92.5520 C.3   219  LEU219      0.1693
     38  C        -25.3650   55.5860   94.0320 C.2   219  LEU219      0.2592
     39  O        -24.4400   56.2420   94.5090 O.2   219  LEU219     -0.2718
     40  CB       -26.4210   57.0330   92.2910 C.3   219  LEU219      0.0284
     41  CG       -25.9760   57.8370   91.0700 C.3   219  LEU219      0.0019
     42  CD1      -25.6850   56.9360   89.8750 C.3   219  LEU219      0.0001
     43  CD2      -27.0370   58.8690   90.7460 C.3   219  LEU219      0.0001
     44  N        -26.1050   54.7480   94.7520 N.am  220  HIS220     -0.1976
     45  CA       -25.8770   54.5330   96.1740 C.3   220  HIS220      0.1656
     46  C        -25.4310   53.0720   96.3940 C.2   220  HIS220      0.2291
     47  O        -24.4950   52.5990   95.7390 O.2   220  HIS220     -0.2864
     48  CB       -27.1620   54.8630   96.9560 C.3   220  HIS220      0.0771
     49  CG       -26.9490   55.0930   98.4230 C.ar  220  HIS220      0.0820
     50  ND1      -25.7000   55.2090   98.9930 N.ar  220  HIS220     -0.2267
     51  CD2      -27.8350   55.2280   99.4390 C.ar  220  HIS220      0.1154
     52  CE1      -25.8240   55.4020  100.2940 C.ar  220  HIS220      0.1986
     53  NE2      -27.1090   55.4170  100.5890 N.ar  220  HIS220     -0.2212
     54  N        -17.0930   59.3260   94.6970 N.3   268  HIS268     -0.1226
     55  CA       -17.7750   59.4970   95.9650 C.3   268  HIS268      0.1752
     56  C        -18.0750   60.9710   96.1740 C.2   268  HIS268      0.2596
     57  O        -17.2870   61.8260   95.7690 O.2   268  HIS268     -0.2718
     58  CB       -16.8870   58.9880   97.0970 C.3   268  HIS268      0.0759
     59  CG       -17.6240   58.7560   98.3720 C.ar  268  HIS268      0.0818
     60  ND1      -18.0970   57.5160   98.7380 N.ar  268  HIS268     -0.2268
     61  CD2      -18.0060   59.6100   99.3510 C.ar  268  HIS268      0.1154
     62  CE1      -18.7380   57.6160   99.8890 C.ar  268  HIS268      0.1986
     63  NE2      -18.6990   58.8750  100.2810 N.ar  268  HIS268     -0.2212
     64  N        -19.2100   61.2650   96.8060 N.am  269  ARG269     -0.1966
     65  CA       -19.5930   62.6470   97.0660 C.3   269  ARG269      0.1729
     66  C        -18.6320   63.3420   98.0230 C.2   269  ARG269      0.2616
     67  O        -18.3490   64.5350   97.8710 O.2   269  ARG269     -0.2715
     68  CB       -21.0220   62.7170   97.6220 C.3   269  ARG269      0.0348
     69  CG       -21.4170   64.0810   98.2400 C.3   269  ARG269      0.0492
     70  CD       -21.2930   65.2380   97.2570 C.3   269  ARG269      0.2205
     71  NE       -22.0960   65.0360   96.0570 N.pl3 269  ARG269     -0.0865
     72  CZ       -23.3980   65.2980   95.9730 C.cat 269  ARG269      0.5346
     73  NH1      -24.0550   65.7760   97.0240 N.pl3 269  ARG269      0.1354
     74  NH2      -24.0430   65.0790   94.8340 N.pl3 269  ARG269      0.1354
     75  N        -18.1520   62.6010   99.0190 N.am  270  VAL270     -0.1977
     76  CA       -17.2410   63.1450  100.0160 C.3   270  VAL270      0.1596
     77  C        -15.7800   62.8340   99.7250 C.2   270  VAL270      0.2287
     78  O        -14.9710   63.7460   99.6150 O.2   270  VAL270     -0.2864
     79  CB       -17.6050   62.6580  101.4330 C.3   270  VAL270      0.0276
     80  CG1      -16.6980   63.3060  102.4660 C.3   270  VAL270      0.0022
     81  CG2      -19.0560   62.9910  101.7350 C.3   270  VAL270      0.0022
     82  N        -12.3970   52.9830  103.2730 N.3   277  ARG277     -0.1245
     83  CA       -12.7070   51.5760  103.4370 C.3   277  ARG277      0.1563
     84  C        -12.1930   50.6670  102.3230 C.2   277  ARG277      0.2260
     85  O        -12.1970   49.4440  102.4830 O.2   277  ARG277     -0.2867
     86  CB       -14.2260   51.4200  103.5870 C.3   277  ARG277      0.0307
     87  CG       -14.8260   52.2890  104.6910 C.3   277  ARG277      0.0489
     88  CD       -16.2820   52.6200  104.4150 C.3   277  ARG277      0.2205
     89  NE       -16.4380   53.2760  103.1160 N.pl3 277  ARG277     -0.0865
     90  CZ       -17.5770   53.7770  102.6490 C.cat 277  ARG277      0.5346
     91  NH1      -18.6840   53.7050  103.3750 N.pl3 277  ARG277      0.1354
     92  NH2      -17.6090   54.3470  101.4510 N.pl3 277  ARG277      0.1354
     93  N        -14.6020   53.0440   94.9510 N.3   317  ASN317     -0.1225
     94  CA       -15.1770   53.2070   96.2730 C.3   317  ASN317      0.1785
     95  C        -15.3870   51.8100   96.8460 C.2   317  ASN317      0.2597
     96  O        -15.0910   50.8150   96.1840 O.2   317  ASN317     -0.2718
     97  CB       -16.4740   54.0440   96.2610 C.3   317  ASN317      0.1169
     98  CG       -17.5290   53.5190   95.2950 C.2   317  ASN317      0.2627
     99  OD1      -17.9790   54.2420   94.4090 O.2   317  ASN317     -0.2716
    100  ND2      -17.9590   52.2890   95.4910 N.am  317  ASN317     -0.0877
    101  N        -15.8610   51.7410   98.0830 N.am  318  LEU318     -0.1966
    102  CA       -16.0890   50.4780   98.7770 C.3   318  LEU318      0.1728
    103  C        -16.8430   49.3980   97.9890 C.2   318  LEU318      0.2616
    104  O        -16.5210   48.2140   98.0950 O.2   318  LEU318     -0.2715
    105  CB       -16.8080   50.7580  100.1000 C.3   318  LEU318      0.0311
    106  CG       -17.1820   49.5880  101.0100 C.3   318  LEU318      0.0022
    107  CD1      -15.9420   48.8070  101.4220 C.3   318  LEU318      0.0001
    108  CD2      -17.8990   50.1310  102.2280 C.3   318  LEU318      0.0001
    109  N        -17.8320   49.8020   97.1960 N.am  319  ASP319     -0.1971
    110  CA       -18.6250   48.8490   96.4180 C.3   319  ASP319      0.1709
    111  C        -17.8220   48.1070   95.3620 C.2   319  ASP319      0.2293
    112  O        -18.2040   47.0130   94.9540 O.2   319  ASP319     -0.2864
    113  CB       -19.8080   49.5420   95.7440 C.3   319  ASP319      0.1436
    114  CG       -20.7800   50.1540   96.7380 C.2   319  ASP319      0.3671
    115  OD1      -21.0150   49.5580   97.8100 O.co2 319  ASP319     -0.2456
    116  OD2      -21.3230   51.2360   96.4280 O.co2 319  ASP319     -0.2456
    117  N        -25.7360   44.9250  102.1700 N.3   340  PHE340     -0.1241
    118  CA       -25.3330   46.2600  102.6030 C.3   340  PHE340      0.1605
    119  C        -26.3520   46.7120  103.6700 C.2   340  PHE340      0.2264
    120  O        -25.9720   47.2800  104.6880 O.2   340  PHE340     -0.2867
    121  CB       -25.3360   47.2060  101.3870 C.3   340  PHE340      0.0534
    122  CG       -24.7010   48.5690  101.6250 C.ar  340  PHE340     -0.0203
    123  CD1      -24.6520   49.1490  102.8920 C.ar  340  PHE340     -0.0042
    124  CD2      -24.1970   49.2970  100.5450 C.ar  340  PHE340     -0.0042
    125  CE1      -24.1170   50.4270  103.0780 C.ar  340  PHE340     -0.0003
    126  CE2      -23.6610   50.5790  100.7220 C.ar  340  PHE340     -0.0003
    127  CZ       -23.6200   51.1450  101.9870 C.ar  340  PHE340     -0.0000
    128  N        -25.7020   48.1710  107.3940 N.3   344  ARG344     -0.1245
    129  CA       -26.0730   49.5730  107.5570 C.3   344  ARG344      0.1563
    130  C        -27.2500   49.8230  108.5010 C.2   344  ARG344      0.2260
    131  O        -27.4970   50.9610  108.8970 O.2   344  ARG344     -0.2867
    132  CB       -26.2920   50.2080  106.1760 C.3   344  ARG344      0.0307
    133  CG       -26.5910   51.7090  106.1570 C.3   344  ARG344      0.0489
    134  CD       -25.5450   52.5580  106.8650 C.3   344  ARG344      0.2205
    135  NE       -24.2080   52.4790  106.2740 N.pl3 344  ARG344     -0.0865
    136  CZ       -23.8040   53.1560  105.2020 C.cat 344  ARG344      0.5346
    137  NH1      -24.6350   53.9720  104.5670 N.pl3 344  ARG344      0.1354
    138  NH2      -22.5450   53.0500  104.7880 N.pl3 344  ARG344      0.1354
@<TRIPOS>BOND
     1    42    41    1
     2    43    41    1
     3    41    40    1
     4    36    37    1
     5    40    37    1
     6    37    38    1
     7    38    39    2
     8    38    44   am
     9    99    98    2
    10    54    55    1
    11    44    45    1
    12    74    72    1
    13    93    94    1
    14   112   111    2
    15    98   100   am
    16    98    97    1
    17   111   110    1
    18    47    46    2
    19   113   110    1
    20   113   114    1
    21    57    56    2
    22    55    56    1
    23    55    58    1
    24    72    71    2
    25    72    73    1
    26    71    70    1
    27    45    46    1
    28    45    48    1
    29    56    64   am
    30    96    95    2
    31    97    94    1
    32    94    95    1
    33   110   109    1
    34   116   114   ar
    35   114   115   ar
    36    64    65    1
    37    95   101   am
    38    48    49    1
    39    65    68    1
    40    65    66    1
    41    58    59    1
    42   109   103   am
    43    70    69    1
    44    68    69    1
    45    67    66    2
    46   103   104    2
    47   103   102    1
    48    66    75   am
    49   101   102    1
    50    59    60   ar
    51    59    61   ar
    52    49    50   ar
    53    49    51   ar
    54    60    62   ar
    55   102   105    1
    56    50    52   ar
    57    75    76    1
    58    12    11    1
    59    61    63   ar
    60    35    32    1
    61    51    53   ar
    62    78    77    2
    63    77    76    1
    64    62    63   ar
    65    76    79    1
    66   105   106    1
    67    52    53   ar
    68   124   126   ar
    69   124   122   ar
    70    11     9   ar
    71    11    10   ar
    72   126   127   ar
    73    32    31    1
    74    32    33    1
    75   106   107    1
    76   106   108    1
    77     9     7   ar
    78    31    25   am
    79   121   122    1
    80   121   118    1
    81    79    81    1
    82    79    80    1
    83    92    90    1
    84    10     8   ar
    85   122   123   ar
    86    33    34    2
    87   127   125   ar
    88   117   118    1
    89    84    85    2
    90    84    83    1
    91     7     6   ar
    92    25    24    1
    93    25    26    2
    94   118   119    1
    95    90    89    2
    96    90    91    1
    97    27    24    1
    98    27    28    1
    99     8     6   ar
   100    24    23    1
   101   123   125   ar
   102    89    88    1
   103    82    83    1
   104     6     5    1
   105    83    86    1
   106    86    87    1
   107    22    20   ar
   108    22    21   ar
   109    30    28   am
   110   119   120    2
   111    20    18   ar
   112    28    29    2
   113    88    87    1
   114   137   136    1
   115    21    19   ar
   116   138   136    1
   117     5     2    1
   118    18    19   ar
   119    18    17    1
   120   136   135    2
   121     2     1    1
   122     2     3    1
   123    17    14    1
   124    16    15    2
   125   133   132    1
   126   133   134    1
   127   132   129    1
   128   135   134    1
   129     4     3    2
   130    15    14    1
   131    14    13    1
   132   128   129    1
   133   129   130    1
   134   130   131    2
