@<TRIPOS>MOLECULE
tmp/1a5hB01.pdb
 173 173 0 0 0
SMALL
GASTEIGER

@<TRIPOS>ATOM
      1  N         -0.3990   39.8950   48.0520 N.3    47  HIS47      -0.1241
      2  CA         0.7140   40.2320   47.1720 C.3    47  HIS47       0.1621
      3  C          0.9130   39.2680   46.0150 C.2    47  HIS47       0.2264
      4  O          1.4390   39.6440   44.9660 O.2    47  HIS47      -0.2867
      5  CB         2.0130   40.4300   47.9580 C.3    47  HIS47       0.0745
      6  CG         2.6380   39.1670   48.4730 C.ar   47  HIS47       0.0817
      7  ND1        2.7940   38.8750   49.8100 N.ar   47  HIS47      -0.2268
      8  CD2        3.2750   38.1730   47.8060 C.ar   47  HIS47       0.1154
      9  CE1        3.5160   37.7500   49.9140 C.ar   47  HIS47       0.1986
     10  NE2        3.8330   37.2820   48.7220 N.ar   47  HIS47      -0.2212
     11  N          4.0150   48.4460   49.4200 N.3    91  ASP91      -0.1225
     12  CA         5.3200   48.7630   49.9670 C.3    91  ASP91       0.1805
     13  C          5.5070   48.0120   51.2750 C.2    91  ASP91       0.2598
     14  O          6.4100   47.1860   51.4260 O.2    91  ASP91      -0.2718
     15  CB         5.4370   50.2650   50.2280 C.3    91  ASP91       0.1424
     16  CG         5.3790   51.0890   48.9590 C.2    91  ASP91       0.3668
     17  OD1        6.0030   50.6900   47.9530 O.co2  91  ASP91      -0.2456
     18  OD2        4.7160   52.1480   48.9750 O.co2  91  ASP91      -0.2456
     19  N          4.6050   48.2810   52.2050 N.am   92  THR92      -0.1939
     20  CA         4.6490   47.6970   53.5290 C.3    92  THR92       0.2028
     21  C          4.0260   46.3150   53.6650 C.2    92  THR92       0.2642
     22  O          4.2540   45.6450   54.6670 O.2    92  THR92      -0.2714
     23  CB         4.0020   48.6650   54.5400 C.3    92  THR92       0.1808
     24  OG1        2.6320   48.8810   54.1890 O.3    92  THR92      -0.2208
     25  CG2        4.7130   50.0100   54.4950 C.3    92  THR92       0.0379
     26  N          3.2890   45.8720   52.6450 N.am   93  TYR93      -0.1973
     27  CA         2.5990   44.5770   52.6560 C.3    93  TYR93       0.1639
     28  C          1.5400   44.5110   53.7370 C.2    93  TYR93       0.2290
     29  O          1.0900   43.4280   54.0960 O.2    93  TYR93      -0.2864
     30  CB         3.5690   43.4000   52.8210 C.3    93  TYR93       0.0560
     31  CG         4.1260   42.8540   51.5230 C.ar   93  TYR93      -0.0198
     32  CD1        4.1790   43.6440   50.3720 C.ar   93  TYR93      -0.0009
     33  CD2        4.6110   41.5520   51.4480 C.ar   93  TYR93      -0.0009
     34  CE1        4.7030   43.1500   49.1770 C.ar   93  TYR93       0.0417
     35  CE2        5.1410   41.0450   50.2550 C.ar   93  TYR93       0.0417
     36  CZ         5.1840   41.8510   49.1200 C.ar   93  TYR93       0.1957
     37  OH         5.6870   41.3570   47.9310 O.3    93  TYR93      -0.2866
     38  N         12.1960   48.0970   58.1240 N.3   174  ARG174     -0.1231
     39  CA        11.0550   47.9270   57.2290 C.3   174  ARG174      0.1694
     40  C          9.8220   48.1500   58.1030 C.2   174  ARG174      0.2592
     41  O          9.8600   47.9410   59.3240 O.2   174  ARG174     -0.2718
     42  CB        11.0160   46.5210   56.6180 C.3   174  ARG174      0.0321
     43  CG        12.3360   46.0180   56.0380 C.3   174  ARG174      0.0489
     44  CD        12.8670   46.9160   54.9400 C.3   174  ARG174      0.2205
     45  NE        14.0730   46.3560   54.3320 N.pl3 174  ARG174     -0.0865
     46  CZ        15.3000   46.8620   54.4570 C.cat 174  ARG174      0.5346
     47  NH1       15.5210   47.9520   55.1710 N.pl3 174  ARG174      0.1354
     48  NH2       16.3240   46.2650   53.8710 N.pl3 174  ARG174      0.1354
     49  N          8.7240   48.5650   57.4860 N.am  175  THR175     -0.1953
     50  CA         7.5060   48.8260   58.2330 C.3   175  THR175      0.1897
     51  C          6.7860   47.5840   58.7400 C.2   175  THR175      0.2313
     52  O          6.2920   46.7800   57.9390 O.2   175  THR175     -0.2863
     53  CB         6.5120   49.6130   57.3900 C.3   175  THR175      0.1794
     54  OG1        7.2100   50.5890   56.6080 O.3   175  THR175     -0.2208
     55  CG2        5.5090   50.3070   58.2840 C.3   175  THR175      0.0378
     56  N         12.7610   28.3540   58.3800 N.3   197  ASP197     -0.1225
     57  CA        12.1380   29.5760   57.9180 C.3   197  ASP197      0.1805
     58  C         11.4100   29.3920   56.5970 C.2   197  ASP197      0.2598
     59  O         11.7250   28.4950   55.8180 O.2   197  ASP197     -0.2718
     60  CB        13.2100   30.6520   57.7290 C.3   197  ASP197      0.1424
     61  CG        12.6400   32.0570   57.7290 C.2   197  ASP197      0.3668
     62  OD1       11.4210   32.2210   57.9120 O.co2 197  ASP197     -0.2456
     63  OD2       13.4260   33.0120   57.5670 O.co2 197  ASP197     -0.2456
     64  N         10.4130   30.2390   56.3690 N.am  198  ALA198     -0.1966
     65  CA         9.6580   30.2520   55.1300 C.3   198  ALA198      0.1728
     66  C         10.5800   30.9600   54.1640 C.2   198  ALA198      0.2616
     67  O         11.5280   31.6120   54.5820 O.2   198  ALA198     -0.2715
     68  CB         8.3880   31.0430   55.3000 C.3   198  ALA198      0.0334
     69  N         10.2590   30.9040   52.8830 N.am  199  CYS199     -0.1954
     70  CA        11.0920   31.5290   51.8620 C.3   199  CYS199      0.1843
     71  C         10.2420   31.8430   50.6350 C.2   199  CYS199      0.2625
     72  O          9.0580   31.5160   50.5800 O.2   199  CYS199     -0.2714
     73  CB        12.2310   30.5750   51.4960 C.3   199  CYS199      0.0997
     74  SG        13.7290   31.3630   50.8370 S.3   199  CYS199     -0.0797
     75  N         10.8520   32.4670   49.6450 N.am  200  GLN200     -0.1963
     76  CA        10.1550   32.8250   48.4190 C.3   200  GLN200      0.1733
     77  C          9.4440   31.6080   47.8110 C.2   200  GLN200      0.2616
     78  O         10.0810   30.6360   47.4250 O.2   200  GLN200     -0.2715
     79  CB        11.1580   33.4270   47.4380 C.3   200  GLN200      0.0408
     80  CG        11.9950   34.5220   48.0780 C.3   200  GLN200      0.0908
     81  CD        13.2590   34.8500   47.3070 C.2   200  GLN200      0.2608
     82  OE1       13.4280   34.4500   46.1490 O.2   200  GLN200     -0.2717
     83  NE2       14.1500   35.5970   47.9440 N.am  200  GLN200     -0.0878
     84  N          8.1190   31.6580   47.7660 N.am  201  GLY201     -0.1955
     85  CA         7.3520   30.5570   47.2170 C.3   201  GLY201      0.1869
     86  C          6.4090   29.9990   48.2620 C.2   201  GLY201      0.2309
     87  O          5.4410   29.2940   47.9410 O.2   201  GLY201     -0.2863
     88  N          4.8910   32.0200   50.4010 N.3   203  SER203     -0.1217
     89  CA         3.8960   33.0830   50.5770 C.3   203  SER203      0.1889
     90  C          2.4720   32.5960   50.3950 C.2   203  SER203      0.2288
     91  O          2.1900   31.8330   49.4730 O.2   203  SER203     -0.2866
     92  CB         4.1700   34.2200   49.5900 C.3   203  SER203      0.2089
     93  OG         5.4810   34.7320   49.7600 O.3   203  SER203     -0.2183
     94  N          1.9710   33.3340   55.6720 N.3   221  ILE221     -0.1231
     95  CA         3.3370   33.6730   55.3130 C.3   221  ILE221      0.1692
     96  C          3.2410   34.9040   54.4330 C.2   221  ILE221      0.2593
     97  O          2.6750   34.8420   53.3320 O.2   221  ILE221     -0.2718
     98  CB         4.0060   32.5300   54.5280 C.3   221  ILE221      0.0266
     99  CG1        3.9900   31.2440   55.3650 C.3   221  ILE221      0.0019
    100  CG2        5.4260   32.9380   54.1050 C.3   221  ILE221      0.0020
    101  CD1        4.5690   30.0340   54.6660 C.3   221  ILE221      0.0001
    102  N          3.7640   36.0210   54.9310 N.am  222  SER222     -0.1938
    103  CA         3.7010   37.2840   54.2070 C.3   222  SER222      0.2055
    104  C          5.0280   37.6920   53.5710 C.2   222  SER222      0.2643
    105  O          5.1770   37.6450   52.3440 O.2   222  SER222     -0.2714
    106  CB         3.1850   38.3840   55.1480 C.3   222  SER222      0.2130
    107  OG         2.8250   39.5710   54.4600 O.3   222  SER222     -0.2179
    108  N          5.9990   38.0580   54.3970 N.am  223  TRP223     -0.1959
    109  CA         7.2850   38.4850   53.8790 C.3   223  TRP223      0.1771
    110  C          8.4050   38.3590   54.9040 C.2   223  TRP223      0.2620
    111  O          8.1990   37.9090   56.0360 O.2   223  TRP223     -0.2715
    112  CB         7.1970   39.9300   53.3830 C.3   223  TRP223      0.0590
    113  CG         6.9380   40.9370   54.4660 C.ar  223  TRP223      0.0006
    114  CD1        5.7230   41.3560   54.9170 C.ar  223  TRP223      0.0946
    115  CD2        7.9220   41.6520   55.2370 C.ar  223  TRP223      0.0152
    116  NE1        5.8850   42.2840   55.9160 N.ar  223  TRP223     -0.2442
    117  CE2        7.2230   42.4880   56.1330 C.ar  223  TRP223      0.0810
    118  CE3        9.3290   41.6670   55.2540 C.ar  223  TRP223      0.0012
    119  CZ2        7.8790   43.3320   57.0420 C.ar  223  TRP223      0.0191
    120  CZ3        9.9820   42.5060   56.1570 C.ar  223  TRP223      0.0001
    121  CH2        9.2560   43.3270   57.0360 C.ar  223  TRP223      0.0015
    122  N          9.5970   38.7640   54.4910 N.am  224  GLY224     -0.1940
    123  CA        10.7540   38.7050   55.3530 C.3   224  GLY224      0.2014
    124  C         11.9770   39.0990   54.5620 C.2   224  GLY224      0.2639
    125  O         11.8960   39.3580   53.3650 O.2   224  GLY224     -0.2714
    126  N         13.1240   39.1050   55.2270 N.am  225  LEU225     -0.1963
    127  CA        14.3840   39.4750   54.5970 C.3   225  LEU225      0.1728
    128  C         15.2710   38.2450   54.5290 C.2   225  LEU225      0.2617
    129  O         15.9090   37.8610   55.5130 O.2   225  LEU225     -0.2715
    130  CB        15.0460   40.6100   55.3850 C.3   225  LEU225      0.0311
    131  CG        14.0730   41.7760   55.6360 C.3   225  LEU225      0.0022
    132  CD1       14.7060   42.8260   56.5180 C.3   225  LEU225      0.0001
    133  CD2       13.5880   42.3790   54.3290 C.3   225  LEU225      0.0001
    134  N         15.2750   37.6100   53.3600 N.am  226  GLY226     -0.1940
    135  CA        16.0540   36.4020   53.1720 C.3   226  GLY226      0.2014
    136  C         15.2870   35.2040   53.7110 C.2   226  GLY226      0.2639
    137  O         14.0550   35.2250   53.7840 O.2   226  GLY226     -0.2714
    138  N         16.0110   34.1720   54.1260 N.am  227  CYS227     -0.1967
    139  CA        15.3950   32.9670   54.6510 C.3   227  CYS227      0.1712
    140  C         16.4050   32.3410   55.5870 C.2   227  CYS227      0.2296
    141  O         17.5660   32.2170   55.2360 O.2   227  CYS227     -0.2864
    142  CB        15.0630   32.0230   53.4930 C.3   227  CYS227      0.0983
    143  SG        14.1120   32.8400   52.1640 S.3   227  CYS227     -0.0798
    144  N         13.4010   37.6550   62.2040 N.3   233  PRO233     -0.2102
    145  CA        12.2360   36.7630   62.1330 C.3   233  PRO233      0.1504
    146  C         11.4530   36.9040   60.8160 C.2   233  PRO233      0.2576
    147  O         11.7890   37.7330   59.9660 O.2   233  PRO233     -0.2718
    148  CB        11.4030   37.2060   63.3360 C.3   233  PRO233      0.0282
    149  CG        11.6420   38.6600   63.3860 C.3   233  PRO233      0.0208
    150  CD        13.1350   38.7870   63.1140 C.3   233  PRO233      0.0893
    151  N         10.4450   36.0560   60.6330 N.am  234  GLY234     -0.1943
    152  CA         9.6240   36.1180   59.4450 C.3   234  GLY234      0.2014
    153  C          8.3130   36.7790   59.8220 C.2   234  GLY234      0.2639
    154  O          7.8300   36.5790   60.9440 O.2   234  GLY234     -0.2714
    155  N          7.7350   37.5490   58.8990 N.am  235  VAL235     -0.1963
    156  CA         6.4700   38.2410   59.1460 C.3   235  VAL235      0.1727
    157  C          5.2770   37.4720   58.5890 C.2   235  VAL235      0.2616
    158  O          5.3210   36.9390   57.4790 O.2   235  VAL235     -0.2715
    159  CB         6.4860   39.6710   58.5560 C.3   235  VAL235      0.0290
    160  CG1        5.2600   40.4640   59.0230 C.3   235  VAL235      0.0023
    161  CG2        7.7660   40.3830   58.9590 C.3   235  VAL235      0.0023
    162  N          4.2060   37.4320   59.3680 N.am  236  TYR236     -0.1974
    163  CA         2.9840   36.7310   59.0010 C.3   236  TYR236      0.1639
    164  C          1.7900   37.6580   59.2820 C.2   236  TYR236      0.2290
    165  O          1.8340   38.4630   60.2070 O.2   236  TYR236     -0.2864
    166  CB         2.8550   35.4320   59.8270 C.3   236  TYR236      0.0560
    167  CG         4.0120   34.4640   59.6750 C.ar  236  TYR236     -0.0198
    168  CD1        5.2470   34.7130   60.2800 C.ar  236  TYR236     -0.0009
    169  CD2        3.8930   33.3190   58.8870 C.ar  236  TYR236     -0.0009
    170  CE1        6.3410   33.8470   60.0920 C.ar  236  TYR236      0.0417
    171  CE2        4.9800   32.4420   58.6920 C.ar  236  TYR236      0.0417
    172  CZ         6.2000   32.7140   59.2900 C.ar  236  TYR236      0.1957
    173  OH         7.2780   31.8800   59.0520 O.3   236  TYR236     -0.2866
@<TRIPOS>BOND
     1     4     3    2
     2     3     2    1
     3    82    81    2
     4     2     5    1
     5     2     1    1
     6    85    84    1
     7    85    86    1
     8    81    83   am
     9    81    80    1
    10    78    77    2
    11    79    80    1
    12    79    76    1
    13    84    77   am
    14     8     6   ar
    15     8    10   ar
    16    77    76    1
    17    37    36    1
    18    87    86    2
    19    17    16   ar
    20     5     6    1
    21    76    75    1
    22     6     7   ar
    23    10     9   ar
    24    16    18   ar
    25    16    15    1
    26    36    34   ar
    27    36    35   ar
    28    34    32   ar
    29    11    12    1
    30    91    90    2
    31    92    93    1
    32    92    89    1
    33    75    71   am
    34     7     9   ar
    35    12    15    1
    36    12    13    1
    37    35    33   ar
    38    32    31   ar
    39    90    89    1
    40    88    89    1
    41    72    71    2
    42    71    70    1
    43    74    73    1
    44    74   143    1
    45    13    14    2
    46    13    19   am
    47    33    31   ar
    48    73    70    1
    49    31    30    1
    50    70    69    1
    51   143   142    1
    52    19    20    1
    53   105   104    2
    54    26    27    1
    55    26    21   am
    56    27    30    1
    57    27    28    1
    58    69    66   am
    59   135   134    1
    60   135   136    1
    61    97    96    2
    62   134   128   am
    63   125   124    2
    64   112   109    1
    65   112   113    1
    66   142   139    1
    67    20    21    1
    68    20    23    1
    69   104   103    1
    70   104   108   am
    71    21    22    2
    72   136   137    2
    73   136   138   am
    74    28    29    2
    75    48    46    1
    76   109   108    1
    77   109   110    1
    78   100    98    1
    79   138   139    1
    80    66    67    2
    81    66    65    1
    82    24    23    1
    83   103   102    1
    84   103   106    1
    85   133   131    1
    86    45    46    2
    87    45    44    1
    88    96   102   am
    89    96    95    1
    90    46    47    1
    91   107   106    1
    92   113   114   ar
    93   113   115   ar
    94   122   110   am
    95   122   123    1
    96    25    23    1
    97    98    95    1
    98    98    99    1
    99   128   127    1
   100   128   129    2
   101   124   126   am
   102   124   123    1
   103   127   126    1
   104   127   130    1
   105   139   140    1
   106   101    99    1
   107   110   111    2
   108   114   116   ar
   109    44    43    1
   110    65    68    1
   111    65    64    1
   112   141   140    2
   113   115   118   ar
   114   115   117   ar
   115   118   120   ar
   116    95    94    1
   117   130   131    1
   118   131   132    1
   119    59    58    2
   120   116   117   ar
   121    43    42    1
   122   117   119   ar
   123   120   121   ar
   124    64    58   am
   125    58    57    1
   126    54    53    1
   127    42    39    1
   128   121   119   ar
   129    39    40    1
   130    39    38    1
   131    53    50    1
   132    53    55    1
   133   158   157    2
   134    49    40   am
   135    49    50    1
   136    63    61   ar
   137    60    61    1
   138    60    57    1
   139    61    62   ar
   140    57    56    1
   141    52    51    2
   142    40    41    2
   143    50    51    1
   144   159   161    1
   145   159   160    1
   146   159   156    1
   147   157   156    1
   148   157   162   am
   149   171   169   ar
   150   171   172   ar
   151   169   167   ar
   152   155   156    1
   153   155   153   am
   154   163   164    1
   155   163   162    1
   156   163   166    1
   157   173   172    1
   158   164   165    2
   159   172   170   ar
   160   152   153    1
   161   152   151    1
   162   167   166    1
   163   167   168   ar
   164   153   154    2
   165   147   146    2
   166   170   168   ar
   167   151   146   am
   168   146   145    1
   169   145   144    1
   170   145   148    1
   171   144   150    1
   172   150   149    1
   173   148   149    1
