@<TRIPOS>MOLECULE
tmp/1a5hB00.pdb
 145 140 0 0 0
SMALL
GASTEIGER

@<TRIPOS>ATOM
      1  N         -0.4770   14.7310   53.7030 N.3    10  ALA10      -0.1231
      2  CA        -1.3460   14.2540   54.7880 C.3    10  ALA10       0.1694
      3  C         -1.0430   14.9040   56.1440 C.2    10  ALA10       0.2593
      4  O         -1.8800   14.8870   57.0380 O.2    10  ALA10      -0.2718
      5  CB        -1.2650   12.7250   54.9070 C.3    10  ALA10       0.0304
      6  N          0.1570   15.4530   56.2950 N.am   11  SER11      -0.1938
      7  CA         0.5430   16.1010   57.5370 C.3    11  SER11       0.2055
      8  C          0.0860   17.5500   57.5550 C.2    11  SER11       0.2643
      9  O          0.1580   18.2110   58.5820 O.2    11  SER11      -0.2714
     10  CB         2.0580   16.0590   57.7170 C.3    11  SER11       0.2130
     11  OG         2.5490   14.7310   57.6590 O.3    11  SER11      -0.2179
     12  N         -0.3310   18.0670   56.4080 N.am   12  HIS12      -0.1959
     13  CA        -0.7870   19.4430   56.3270 C.3    12  HIS12       0.1772
     14  C         -1.8950   19.5240   55.2670 C.2    12  HIS12       0.2462
     15  O         -1.8200   20.3400   54.3520 O.2    12  HIS12      -0.2730
     16  CB         0.3840   20.3840   55.9520 C.3    12  HIS12       0.0785
     17  CG         1.6320   20.1790   56.7650 C.ar   12  HIS12       0.0821
     18  ND1        1.7590   20.6080   58.0710 N.ar   12  HIS12      -0.2267
     19  CD2        2.8010   19.5670   56.4630 C.ar   12  HIS12       0.1154
     20  CE1        2.9470   20.2660   58.5360 C.ar   12  HIS12       0.1986
     21  NE2        3.5990   19.6320   57.5800 N.ar   12  HIS12      -0.2212
     22  N         -2.9730   18.7330   55.4250 N.am   13  PRO13      -0.2716
     23  CA        -4.1390   18.6470   54.5270 C.3    13  PRO13       0.1536
     24  C         -4.7200   19.9810   54.0490 C.2    13  PRO13       0.2598
     25  O         -5.4330   20.0500   53.0410 O.2    13  PRO13      -0.2715
     26  CB        -5.1630   17.8980   55.3840 C.3    13  PRO13       0.0310
     27  CG        -4.3320   17.0310   56.2100 C.3    13  PRO13       0.0237
     28  CD        -3.2230   17.9510   56.6420 C.3    13  PRO13       0.0939
     29  N         -4.4290   21.0230   54.8180 N.am   14  TRP14      -0.1974
     30  CA        -4.8830   22.3970   54.5710 C.3    14  TRP14       0.1640
     31  C         -4.0220   23.2460   53.6220 C.2    14  TRP14       0.2290
     32  O         -4.3760   24.3850   53.3400 O.2    14  TRP14      -0.2864
     33  CB        -5.0210   23.1080   55.9110 C.3    14  TRP14       0.0576
     34  CG        -4.0010   22.6550   56.8970 C.ar   14  TRP14       0.0006
     35  CD1       -2.6900   22.9970   56.9220 C.ar   14  TRP14       0.0946
     36  CD2       -4.2000   21.7280   57.9710 C.ar   14  TRP14       0.0152
     37  NE1       -2.0510   22.3450   57.9410 N.ar   14  TRP14      -0.2442
     38  CE2       -2.9530   21.5590   58.6040 C.ar   14  TRP14       0.0810
     39  CE3       -5.3080   21.0220   58.4580 C.ar   14  TRP14       0.0012
     40  CZ2       -2.7800   20.7090   59.7070 C.ar   14  TRP14       0.0191
     41  CZ3       -5.1340   20.1790   59.5500 C.ar   14  TRP14       0.0001
     42  CH2       -3.8780   20.0320   60.1610 C.ar   14  TRP14       0.0015
     43  N         -9.7100   26.9080   54.1880 N.3    37  ILE37      -0.1245
     44  CA       -10.5270   27.1670   55.3720 C.3    37  ILE37       0.1561
     45  C        -11.8850   26.4630   55.3280 C.2    37  ILE37       0.2260
     46  O        -12.3240   25.8880   56.3220 O.2    37  ILE37      -0.2867
     47  CB       -10.6860   28.6780   55.6700 C.3    37  ILE37       0.0252
     48  CG1      -11.2060   29.4260   54.4410 C.3    37  ILE37       0.0019
     49  CG2       -9.3610   29.2450   56.1290 C.3    37  ILE37       0.0019
     50  CD1      -11.5030   30.8930   54.6820 C.3    37  ILE37       0.0001
     51  N        -13.5160   16.6290   51.7030 N.3   112  GLU112     -0.1245
     52  CA       -12.6380   16.2240   52.7990 C.3   112  GLU112      0.1567
     53  C        -12.1760   14.7820   52.6460 C.2   112  GLU112      0.2260
     54  O        -12.9810   13.8920   52.3830 O.2   112  GLU112     -0.2867
     55  CB       -13.3610   16.3820   54.1370 C.3   112  GLU112      0.0388
     56  CG       -12.5480   15.9280   55.3370 C.3   112  GLU112      0.1160
     57  CD       -13.4080   15.6630   56.5490 C.2   112  GLU112      0.3649
     58  OE1      -13.9960   14.5600   56.6300 O.co2 112  GLU112     -0.2457
     59  OE2      -13.4920   16.5560   57.4180 O.co2 112  GLU112     -0.2457
     60  N         -8.3190   12.0920   53.5430 N.3   114  SER114     -0.1217
     61  CA        -7.1550   11.8750   54.3920 C.3   114  SER114      0.1889
     62  C         -6.0470   12.8720   54.0370 C.2   114  SER114      0.2288
     63  O         -5.1800   13.1720   54.8630 O.2   114  SER114     -0.2866
     64  CB        -6.6500   10.4340   54.2370 C.3   114  SER114      0.2089
     65  OG        -6.3570   10.1190   52.8820 O.3   114  SER114     -0.2183
     66  N         -8.1370   18.5230   53.9850 N.3   117  ARG117     -0.1231
     67  CA        -8.9290   18.9630   55.1390 C.3   117  ARG117      0.1694
     68  C         -8.7050   20.4440   55.4960 C.2   117  ARG117      0.2593
     69  O         -7.6720   21.0410   55.1540 O.2   117  ARG117     -0.2718
     70  CB        -8.6480   18.0520   56.3430 C.3   117  ARG117      0.0321
     71  CG        -9.3000   18.4740   57.6530 C.3   117  ARG117      0.0489
     72  CD        -9.2310   17.3510   58.6740 C.3   117  ARG117      0.2205
     73  NE       -10.2360   16.3190   58.4210 N.pl3 117  ARG117     -0.0865
     74  CZ       -10.0690   15.0200   58.6620 C.cat 117  ARG117      0.5346
     75  NH1       -8.9230   14.5700   59.1620 N.pl3 117  ARG117      0.1354
     76  NH2      -11.0680   14.1690   58.4360 N.pl3 117  ARG117      0.1354
     77  N         -9.6950   21.0310   56.1590 N.am  118  THR118     -0.1939
     78  CA        -9.6490   22.4340   56.5460 C.3   118  THR118      0.2028
     79  C         -8.8910   22.7230   57.8280 C.2   118  THR118      0.2642
     80  O         -8.6820   21.8350   58.6750 O.2   118  THR118     -0.2714
     81  CB       -11.0530   22.9930   56.7420 C.3   118  THR118      0.1808
     82  OG1      -11.7860   22.1310   57.6220 O.3   118  THR118     -0.2208
     83  CG2      -11.7720   23.0840   55.4160 C.3   118  THR118      0.0379
     84  N         -8.4660   23.9770   57.9510 N.am  119  VAL119     -0.1963
     85  CA        -7.7790   24.4300   59.1450 C.3   119  VAL119      0.1727
     86  C         -8.8490   25.1400   59.9520 C.2   119  VAL119      0.2616
     87  O         -9.7680   25.7580   59.3910 O.2   119  VAL119     -0.2715
     88  CB        -6.7040   25.4940   58.8730 C.3   119  VAL119      0.0290
     89  CG1       -5.5190   25.2520   59.7690 C.3   119  VAL119      0.0023
     90  CG2       -6.3380   25.5600   57.4150 C.3   119  VAL119      0.0023
     91  N         -8.7300   25.0640   61.2680 N.am  120  CYS120     -0.1968
     92  CA        -9.6760   25.7400   62.1260 C.3   120  CYS120      0.1712
     93  C         -9.2020   27.1830   62.2700 C.2   120  CYS120      0.2296
     94  O         -8.0170   27.4450   62.5200 O.2   120  CYS120     -0.2864
     95  CB        -9.7370   25.0460   63.4830 C.3   120  CYS120      0.0983
     96  SG       -10.1200   23.2650   63.3850 S.3   120  CYS120     -0.0798
     97  N          4.2280   25.5390   63.4540 N.3   135  GLU135     -0.1245
     98  CA         4.8530   25.0110   62.2570 C.3   135  GLU135      0.1567
     99  C          4.2600   25.6020   60.9950 C.2   135  GLU135      0.2260
    100  O          3.1190   26.0610   60.9770 O.2   135  GLU135     -0.2867
    101  CB         4.7320   23.4840   62.2270 C.3   135  GLU135      0.0388
    102  CG         3.3470   22.9830   62.5760 C.3   135  GLU135      0.1160
    103  CD         3.0780   21.6050   62.0340 C.2   135  GLU135      0.3649
    104  OE1        3.7560   20.6540   62.4840 O.co2 135  GLU135     -0.2457
    105  OE2        2.1880   21.4840   61.1550 O.co2 135  GLU135     -0.2457
    106  N          8.0520   21.1690   55.5120 N.3   155  GLU155     -0.1245
    107  CA         7.5080   21.7340   56.7430 C.3   155  GLU155      0.1567
    108  C          8.6680   22.1970   57.6070 C.2   155  GLU155      0.2260
    109  O          9.7490   21.6170   57.5660 O.2   155  GLU155     -0.2867
    110  CB         6.6740   20.7080   57.5150 C.3   155  GLU155      0.0388
    111  CG         7.4880   19.5890   58.1580 C.3   155  GLU155      0.1160
    112  CD         6.7120   18.7730   59.1910 C.2   155  GLU155      0.3649
    113  OE1        5.6720   19.2350   59.7150 O.co2 155  GLU155     -0.2457
    114  OE2        7.1690   17.6530   59.4960 O.co2 155  GLU155     -0.2457
    115  N         -0.9960   24.5270   67.5910 N.3   210  LEU210     -0.1245
    116  CA        -1.9320   23.6140   68.2270 C.3   210  LEU210      0.1561
    117  C         -2.7190   24.4150   69.2570 C.2   210  LEU210      0.2260
    118  O         -2.1370   25.0440   70.1420 O.2   210  LEU210     -0.2867
    119  CB        -1.1920   22.4510   68.8950 C.3   210  LEU210      0.0270
    120  CG        -2.0940   21.4320   69.5860 C.3   210  LEU210      0.0019
    121  CD1       -3.1640   20.9490   68.6240 C.3   210  LEU210      0.0001
    122  CD2       -1.2630   20.2840   70.1150 C.3   210  LEU210      0.0001
    123  N         -6.4770   21.3270   71.2880 N.3   213  GLY213     -0.1210
    124  CA        -6.4950   20.0300   70.6420 C.3   213  GLY213      0.1956
    125  C         -6.5510   20.0070   69.1290 C.2   213  GLY213      0.2612
    126  O         -6.3600   18.9440   68.5420 O.2   213  GLY213     -0.2717
    127  N         -6.8190   21.1420   68.4920 N.am  214  ARG214     -0.1965
    128  CA        -6.8850   21.1910   67.0390 C.3   214  ARG214      0.1729
    129  C         -5.8620   22.1540   66.4470 C.2   214  ARG214      0.2616
    130  O         -5.4120   23.0840   67.1190 O.2   214  ARG214     -0.2715
    131  CB        -8.2970   21.5460   66.5860 C.3   214  ARG214      0.0348
    132  CG        -9.2870   20.4630   66.9470 C.3   214  ARG214      0.0492
    133  CD       -10.6100   20.5920   66.2120 C.3   214  ARG214      0.2205
    134  NE       -11.5020   19.4670   66.5060 N.pl3 214  ARG214     -0.0865
    135  CZ       -12.6170   19.1990   65.8320 C.cat 214  ARG214      0.5346
    136  NH1      -12.9850   19.9750   64.8210 N.pl3 214  ARG214      0.1354
    137  NH2      -13.3690   18.1580   66.1710 N.pl3 214  ARG214      0.1354
    138  N         -5.4130   21.8780   65.2260 N.am  215  MET215     -0.1977
    139  CA        -4.4480   22.7530   64.5690 C.3   215  MET215      0.1605
    140  C         -5.1850   24.0060   64.1180 C.2   215  MET215      0.2287
    141  O         -6.1070   23.9510   63.2890 O.2   215  MET215     -0.2864
    142  CB        -3.7810   22.0610   63.3730 C.3   215  MET215      0.0413
    143  CG        -2.9030   20.8590   63.7320 C.3   215  MET215      0.0598
    144  SD        -1.5450   21.1910   64.8840 S.3   215  MET215     -0.1393
    145  CE        -0.4960   22.2200   63.9400 C.3   215  MET215      0.0692
@<TRIPOS>BOND
     1    51    52    1
     2    54    53    2
     3    53    52    1
     4    52    55    1
     5    65    64    1
     6    25    24    2
     7    32    31    2
     8    60    61    1
     9    31    30    1
    10     1     2    1
    11    66    67    1
    12    62    61    1
    13    62    63    2
    14    24    23    1
    15    24    29   am
    16    55    56    1
    17    43    44    1
    18    64    61    1
    19    15    14    2
    20    48    50    1
    21    48    47    1
    22    23    26    1
    23    23    22    1
    24    30    29    1
    25    30    33    1
    26     2     5    1
    27     2     3    1
    28    67    68    1
    29    67    70    1
    30    69    68    2
    31    14    22   am
    32    14    13    1
    33    45    44    1
    34    45    46    2
    35    56    57    1
    36    44    47    1
    37    26    27    1
    38    83    81    1
    39    22    28    1
    40    68    77   am
    41   106   107    1
    42    47    49    1
    43    33    34    1
    44    16    13    1
    45    16    17    1
    46     3     6   am
    47     3     4    2
    48    77    78    1
    49    27    28    1
    50     6     7    1
    51    13    12    1
    52    70    71    1
    53    12     8   am
    54    19    17   ar
    55    19    21   ar
    56    78    81    1
    57    78    79    1
    58    57    58   ar
    59    57    59   ar
    60    81    82    1
    61   107   110    1
    62   107   108    1
    63    17    18   ar
    64    34    35   ar
    65    34    36   ar
    66    35    37   ar
    67    90    88    1
    68   110   111    1
    69     7     8    1
    70     7    10    1
    71     8     9    2
    72   109   108    2
    73    21    20   ar
    74    71    72    1
    75    11    10    1
    76    79    84   am
    77    79    80    2
    78    37    38   ar
    79    84    85    1
    80    36    39   ar
    81    36    38   ar
    82    18    20   ar
    83   111   112    1
    84    73    74    2
    85    73    72    1
    86    76    74    1
    87    39    41   ar
    88    38    40   ar
    89    74    75    1
    90    88    85    1
    91    88    89    1
    92    85    86    1
    93   112   114   ar
    94   112   113   ar
    95    87    86    2
    96    41    42   ar
    97    40    42   ar
    98    86    91   am
    99   100    99    2
   100    99    98    1
   101   105   103   ar
   102    91    92    1
   103   103   104   ar
   104   103   102    1
   105    92    93    1
   106    92    95    1
   107   101    98    1
   108   101   102    1
   109    98    97    1
   110    93    94    2
   111   141   140    2
   112   142   143    1
   113   142   139    1
   114    96    95    1
   115   143   144    1
   116   145   144    1
   117   140   139    1
   118   139   138    1
   119   136   135    1
   120   138   129   am
   121   135   137    1
   122   135   134    2
   123   133   134    1
   124   133   132    1
   125   129   128    1
   126   129   130    2
   127   131   132    1
   128   131   128    1
   129   128   127    1
   130   115   116    1
   131   116   119    1
   132   116   117    1
   133   127   125   am
   134   126   125    2
   135   121   120    1
   136   119   120    1
   137   125   124    1
   138   117   118    2
   139   120   122    1
   140   124   123    1
