@<TRIPOS>MOLECULE
tmp/1a5iA00.pdb
 147 143 0 0 0
SMALL
GASTEIGER

@<TRIPOS>ATOM
      1  N         36.9000   31.9690   48.7510 N.3    45  CYS45      -0.1235
      2  CA        37.7800   32.4860   47.7050 C.3    45  CYS45       0.1677
      3  C         38.7290   31.4250   47.2280 C.2    45  CYS45       0.2270
      4  O         38.6490   30.2630   47.6390 O.2    45  CYS45      -0.2867
      5  CB        38.6400   33.6050   48.2550 C.3    45  CYS45       0.0956
      6  SG        37.8240   35.2050   48.2130 S.3    45  CYS45      -0.0801
      7  N         40.0690   41.3540   50.5800 N.3    60  HIS60      -0.1241
      8  CA        38.6120   41.4200   50.5780 C.3    60  HIS60       0.1621
      9  C         37.8820   40.0880   50.7070 C.2    60  HIS60       0.2264
     10  O         36.6590   40.0600   50.7150 O.2    60  HIS60      -0.2867
     11  CB        38.0970   42.2230   49.3710 C.3    60  HIS60       0.0745
     12  CG        37.9780   41.4330   48.1010 C.ar   60  HIS60       0.0817
     13  ND1       38.7410   41.6560   46.9770 N.ar   60  HIS60      -0.2268
     14  CD2       37.1190   40.4360   47.7620 C.ar   60  HIS60       0.1154
     15  CE1       38.3260   40.8030   46.0240 C.ar   60  HIS60       0.1986
     16  NE2       37.3400   40.0460   46.4600 N.ar   60  HIS60      -0.2212
     17  N         40.0590   48.9670   46.8580 N.3   106  TYR106     -0.1241
     18  CA        40.7570   47.6920   46.7250 C.3   106  TYR106      0.1605
     19  C         42.2730   47.7990   46.6550 C.2   106  TYR106      0.2264
     20  O         42.9680   46.8510   46.2710 O.2   106  TYR106     -0.2867
     21  CB        40.2030   46.9140   45.5470 C.3   106  TYR106      0.0534
     22  CG        38.8140   46.4340   45.8110 C.ar  106  TYR106     -0.0201
     23  CD1       38.5880   45.4020   46.7100 C.ar  106  TYR106     -0.0009
     24  CD2       37.7220   47.0030   45.1640 C.ar  106  TYR106     -0.0009
     25  CE1       37.3130   44.9440   46.9610 C.ar  106  TYR106      0.0417
     26  CE2       36.4380   46.5480   45.4040 C.ar  106  TYR106      0.0417
     27  CZ        36.2390   45.5160   46.3050 C.ar  106  TYR106      0.1957
     28  OH        34.9740   45.0300   46.5480 O.3   106  TYR106     -0.2866
     29  N         28.7860   37.3630   35.4110 N.3   157  SER157     -0.1217
     30  CA        28.5720   38.2560   36.5240 C.3   157  SER157      0.1889
     31  C         27.2480   37.9830   37.2000 C.2   157  SER157      0.2288
     32  O         27.1930   37.8300   38.4100 O.2   157  SER157     -0.2866
     33  CB        28.6250   39.7010   36.0640 C.3   157  SER157      0.2089
     34  OG        28.4330   40.5810   37.1580 O.3   157  SER157     -0.2183
     35  N         36.5100   54.0260   37.4950 N.3   187  LYS187     -0.1245
     36  CA        36.8400   53.3930   38.7610 C.3   187  LYS187      0.1561
     37  C         38.3120   53.6760   39.0390 C.2   187  LYS187      0.2260
     38  O         39.0930   53.8740   38.1220 O.2   187  LYS187     -0.2867
     39  CB        36.5910   51.8900   38.6830 C.3   187  LYS187      0.0271
     40  CG        35.1100   51.4700   38.6510 C.3   187  LYS187      0.0035
     41  CD        34.6550   50.9100   40.0020 C.3   187  LYS187      0.0206
     42  CE        33.4320   49.9900   39.8840 C.3   187  LYS187      0.1093
     43  NZ        33.0150   49.3540   41.1850 N.3   187  LYS187     -0.1314
     44  N         38.0950   35.7700   31.5330 N.3   210  ASP210     -0.1225
     45  CA        38.3250   36.7690   32.5800 C.3   210  ASP210      0.1805
     46  C         37.9670   36.0930   33.8930 C.2   210  ASP210      0.2598
     47  O         37.3780   35.0080   33.9070 O.2   210  ASP210     -0.2718
     48  CB        37.3850   37.9700   32.3710 C.3   210  ASP210      0.1424
     49  CG        37.6650   39.1250   33.3140 C.2   210  ASP210      0.3668
     50  OD1       38.6720   39.0820   34.0380 O.co2 210  ASP210     -0.2456
     51  OD2       36.8900   40.1080   33.3120 O.co2 210  ASP210     -0.2456
     52  N         38.4060   36.6760   34.9930 N.am  211  ALA211     -0.1966
     53  CA        38.0680   36.1300   36.2850 C.3   211  ALA211      0.1728
     54  C         36.7930   36.8560   36.7030 C.2   211  ALA211      0.2616
     55  O         36.5230   37.9740   36.2360 O.2   211  ALA211     -0.2715
     56  CB        39.1770   36.3920   37.2650 C.3   211  ALA211      0.0334
     57  N         35.9750   36.1850   37.5060 N.am  212  CYS212     -0.1954
     58  CA        34.7410   36.7560   38.0110 C.3   212  CYS212      0.1843
     59  C         34.7000   36.5630   39.5440 C.2   212  CYS212      0.2625
     60  O         35.7320   36.2650   40.1640 O.2   212  CYS212     -0.2714
     61  CB        33.5660   36.0840   37.3060 C.3   212  CYS212      0.0997
     62  SG        32.0200   37.0430   37.2320 S.3   212  CYS212     -0.0797
     63  N         33.5370   36.7950   40.1540 N.am  213  GLN213     -0.1963
     64  CA        33.3510   36.6530   41.6050 C.3   213  GLN213      0.1733
     65  C         33.5850   35.2270   42.1210 C.2   213  GLN213      0.2616
     66  O         33.0480   34.2410   41.5910 O.2   213  GLN213     -0.2715
     67  CB        31.9600   37.1530   42.0260 C.3   213  GLN213      0.0408
     68  CG        31.8590   38.6670   42.2900 C.3   213  GLN213      0.0908
     69  CD        32.0770   39.5340   41.0510 C.2   213  GLN213      0.2608
     70  OE1       31.6060   39.2220   39.9480 O.2   213  GLN213     -0.2717
     71  NE2       32.7920   40.6350   41.2330 N.am  213  GLN213     -0.0878
     72  N         34.3850   35.1400   43.1780 N.am  214  GLY214     -0.1955
     73  CA        34.7320   33.8540   43.7490 C.3   214  GLY214      0.1869
     74  C         36.1460   33.4660   43.3420 C.2   214  GLY214      0.2309
     75  O         36.7190   32.5170   43.8780 O.2   214  GLY214     -0.2863
     76  N         38.7310   35.7570   43.3550 N.3   216  SER216     -0.1217
     77  CA        39.6410   36.5830   44.1340 C.3   216  SER216      0.1889
     78  C         40.6200   35.7710   44.9260 C.2   216  SER216      0.2288
     79  O         40.2900   34.6810   45.4200 O.2   216  SER216     -0.2866
     80  CB        38.8750   37.5140   45.0480 C.3   216  SER216      0.2089
     81  OG        38.2420   38.5320   44.2890 O.3   216  SER216     -0.2183
     82  N         44.0930   37.9120   41.8270 N.3   234  ILE234     -0.1231
     83  CA        42.7890   38.3980   41.3710 C.3   234  ILE234      0.1692
     84  C         42.1400   39.2840   42.4370 C.2   234  ILE234      0.2593
     85  O         41.7630   38.7950   43.4980 O.2   234  ILE234     -0.2718
     86  CB        41.8510   37.2420   40.9790 C.3   234  ILE234      0.0266
     87  CG1       42.5030   36.3710   39.9040 C.3   234  ILE234      0.0019
     88  CG2       40.5740   37.8060   40.4120 C.3   234  ILE234      0.0020
     89  CD1       41.8630   35.0190   39.7560 C.3   234  ILE234      0.0001
     90  N         42.0090   40.5740   42.1290 N.am  235  SER235     -0.1938
     91  CA        41.4640   41.5810   43.0370 C.3   235  SER235      0.2055
     92  C         40.0520   42.0680   42.6820 C.2   235  SER235      0.2643
     93  O         39.0770   41.7510   43.3770 O.2   235  SER235     -0.2714
     94  CB        42.4380   42.7700   43.0930 C.3   235  SER235      0.2130
     95  OG        41.9340   43.8770   43.8070 O.3   235  SER235     -0.2179
     96  N         39.9270   42.8330   41.6060 N.am  236  TRP236     -0.1959
     97  CA        38.6210   43.3440   41.2310 C.3   236  TRP236      0.1771
     98  C         38.3730   43.5160   39.7310 C.2   236  TRP236      0.2620
     99  O         39.2400   43.2580   38.8970 O.2   236  TRP236     -0.2715
    100  CB        38.3790   44.6610   41.9430 C.3   236  TRP236      0.0590
    101  CG        39.3010   45.7680   41.5200 C.ar  236  TRP236      0.0006
    102  CD1       40.5610   45.9990   41.9840 C.ar  236  TRP236      0.0946
    103  CD2       38.9970   46.8450   40.6170 C.ar  236  TRP236      0.0152
    104  NE1       41.0590   47.1620   41.4360 N.ar  236  TRP236     -0.2442
    105  CE2       40.1220   47.6990   40.5920 C.ar  236  TRP236      0.0810
    106  CE3       37.8820   47.1730   39.8320 C.ar  236  TRP236      0.0012
    107  CZ2       40.1670   48.8700   39.8090 C.ar  236  TRP236      0.0191
    108  CZ3       37.9230   48.3370   39.0510 C.ar  236  TRP236      0.0001
    109  CH2       39.0620   49.1700   39.0460 C.ar  236  TRP236      0.0015
    110  N         37.1550   43.9210   39.3980 N.am  237  GLY237     -0.1940
    111  CA        36.8000   44.1290   38.0130 C.3   237  GLY237      0.2014
    112  C         35.3660   44.5890   37.8460 C.2   237  GLY237      0.2639
    113  O         34.4680   44.2010   38.6270 O.2   237  GLY237     -0.2714
    114  N         35.1640   45.4360   36.8350 N.am  238  VAL238     -0.1963
    115  CA        33.8510   45.9770   36.5030 C.3   238  VAL238      0.1727
    116  C         33.1590   45.0040   35.5480 C.2   238  VAL238      0.2616
    117  O         33.3870   45.0350   34.3360 O.2   238  VAL238     -0.2715
    118  CB        33.9720   47.3550   35.8400 C.3   238  VAL238      0.0290
    119  CG1       32.6200   47.8940   35.5220 C.3   238  VAL238      0.0023
    120  CG2       34.6970   48.3210   36.7590 C.3   238  VAL238      0.0023
    121  N         32.3250   44.1310   36.1060 N.am  239  GLY239     -0.1955
    122  CA        31.6280   43.1480   35.3030 C.3   239  GLY239      0.1869
    123  C         32.4640   41.8830   35.2210 C.2   239  GLY239      0.2309
    124  O         33.2710   41.6000   36.1170 O.2   239  GLY239     -0.2863
    125  N         40.6580   43.1080   33.4800 N.3   247  GLY247     -0.1210
    126  CA        40.4350   42.8330   34.8840 C.3   247  GLY247      0.1956
    127  C         41.5750   43.4540   35.6570 C.2   247  GLY247      0.2612
    128  O         42.6970   43.5320   35.1510 O.2   247  GLY247     -0.2717
    129  N         41.2980   43.9060   36.8730 N.am  248  VAL248     -0.1965
    130  CA        42.3170   44.5190   37.6940 C.3   248  VAL248      0.1727
    131  C         42.8590   43.5200   38.6840 C.2   248  VAL248      0.2616
    132  O         42.1050   42.7480   39.2610 O.2   248  VAL248     -0.2715
    133  CB        41.7700   45.7070   38.3940 C.3   248  VAL248      0.0290
    134  CG1       42.8930   46.4330   39.0950 C.3   248  VAL248      0.0023
    135  CG2       41.1020   46.6040   37.3760 C.3   248  VAL248      0.0023
    136  N         44.1730   43.5180   38.8590 N.am  249  TYR249     -0.1974
    137  CA        44.8360   42.5650   39.7480 C.3   249  TYR249      0.1639
    138  C         45.8270   43.2530   40.6920 C.2   249  TYR249      0.2290
    139  O         46.3410   44.3300   40.3790 O.2   249  TYR249     -0.2864
    140  CB        45.6260   41.5450   38.9100 C.3   249  TYR249      0.0560
    141  CG        44.8320   40.6460   37.9810 C.ar  249  TYR249     -0.0198
    142  CD1       44.0870   41.1670   36.9150 C.ar  249  TYR249     -0.0009
    143  CD2       44.8810   39.2600   38.1300 C.ar  249  TYR249     -0.0009
    144  CE1       43.4130   40.3180   36.0150 C.ar  249  TYR249      0.0417
    145  CE2       44.2160   38.4050   37.2410 C.ar  249  TYR249      0.0417
    146  CZ        43.4910   38.9370   36.1930 C.ar  249  TYR249      0.1957
    147  OH        42.8690   38.0790   35.3210 O.3   249  TYR249     -0.2866
@<TRIPOS>BOND
     1    44    45    1
     2    48    45    1
     3    48    49    1
     4    45    46    1
     5    51    49   ar
     6    49    50   ar
     7   125   126    1
     8    46    47    2
     9    46    52   am
    10   117   116    2
    11   126   127    1
    12    52    53    1
    13   128   127    2
    14   123   122    1
    15   123   124    2
    16   122   121    1
    17   147   146    1
    18    29    30    1
    19   119   118    1
    20   116   121   am
    21   116   115    1
    22   127   129   am
    23   118   115    1
    24   118   120    1
    25   144   146   ar
    26   144   142   ar
    27    33    30    1
    28    33    34    1
    29   146   145   ar
    30    55    54    2
    31    53    54    1
    32    53    56    1
    33   115   114    1
    34    30    31    1
    35    54    57   am
    36   114   112   am
    37   129   130    1
    38   142   141   ar
    39    31    32    2
    40    62    61    1
    41   145   143   ar
    42    61    58    1
    43   135   133    1
    44    35    36    1
    45    57    58    1
    46   130   133    1
    47   130   131    1
    48   112   111    1
    49   112   113    2
    50   141   143   ar
    51   141   140    1
    52    58    59    1
    53   111   110    1
    54    38    37    2
    55   133   134    1
    56    40    39    1
    57    40    41    1
    58    39    36    1
    59   131   136   am
    60   131   132    2
    61    36    37    1
    62   136   137    1
    63    99    98    2
    64   140   137    1
    65   109   108   ar
    66   109   107   ar
    67   108   106   ar
    68   110    98   am
    69    59    63   am
    70    59    60    2
    71    98    97    1
    72   137   138    1
    73    89    87    1
    74   107   105   ar
    75   106   103   ar
    76    42    41    1
    77    42    43    1
    78    87    86    1
    79    70    69    2
    80    63    64    1
    81   139   138    2
    82    88    86    1
    83   105   103   ar
    84   105   104   ar
    85   103   101   ar
    86    86    83    1
    87    69    71   am
    88    69    68    1
    89    97    96    1
    90    97   100    1
    91    83    82    1
    92    83    84    1
    93   104   102   ar
    94   101   100    1
    95   101   102   ar
    96    66    65    2
    97    64    67    1
    98    64    65    1
    99    96    92   am
   100    67    68    1
   101    65    72   am
   102    90    84   am
   103    90    91    1
   104    84    85    2
   105    92    91    1
   106    92    93    2
   107    91    94    1
   108    94    95    1
   109    72    73    1
   110    74    73    1
   111    74    75    2
   112    76    77    1
   113    77    78    1
   114    77    80    1
   115    81    80    1
   116    78    79    2
   117    24    26   ar
   118    24    22   ar
   119    26    27   ar
   120    21    22    1
   121    21    18    1
   122    22    23   ar
   123    15    16   ar
   124    15    13   ar
   125    20    19    2
   126    27    28    1
   127    27    25   ar
   128    16    14   ar
   129    19    18    1
   130    23    25   ar
   131    18    17    1
   132    13    12   ar
   133     3     4    2
   134     3     2    1
   135     2     5    1
   136     2     1    1
   137    14    12   ar
   138    12    11    1
   139     6     5    1
   140    11     8    1
   141     8     7    1
   142     8     9    1
   143     9    10    2
