@<TRIPOS>MOLECULE
tmp/1a5zA01.pdb
 72 68 0 0 0
SMALL
GASTEIGER

@<TRIPOS>ATOM
      1  N         95.3520   24.8560   40.1810 N.3    39  GLU39      -0.1245
      2  CA        95.7920   25.2140   38.8330 C.3    39  GLU39       0.1567
      3  C         94.9760   26.4110   38.2340 C.2    39  GLU39       0.2260
      4  O         95.5440   27.3480   37.6600 O.2    39  GLU39      -0.2867
      5  CB        95.7530   23.9750   37.9040 C.3    39  GLU39       0.0388
      6  CG        96.6030   24.2030   36.6470 C.3    39  GLU39       0.1160
      7  CD        96.3770   23.2220   35.5130 C.2    39  GLU39       0.3649
      8  OE1       95.3470   22.5220   35.4840 O.co2  39  GLU39      -0.2457
      9  OE2       97.2400   23.1810   34.6150 O.co2  39  GLU39      -0.2457
     10  N         96.1610   29.4160   39.9590 N.3    42  ALA42      -0.1231
     11  CA        97.4310   29.8510   39.4420 C.3    42  ALA42       0.1694
     12  C         97.2670   30.5880   38.0790 C.2    42  ALA42       0.2591
     13  O         97.7810   31.6840   37.8900 O.2    42  ALA42      -0.2718
     14  CB        98.3460   28.6850   39.3460 C.3    42  ALA42       0.0304
     15  N         96.4450   30.0750   37.1770 N.am   43  LEU43      -0.1980
     16  CA        96.2600   30.7310   35.8760 C.3    43  LEU43       0.1596
     17  C         95.6130   32.1050   35.9750 C.2    43  LEU43       0.2287
     18  O         95.8810   33.0080   35.1610 O.2    43  LEU43      -0.2864
     19  CB        95.4270   29.8310   34.9460 C.3    43  LEU43       0.0297
     20  CG        96.1210   28.5300   34.5920 C.3    43  LEU43       0.0022
     21  CD1       95.1800   27.5990   33.8700 C.3    43  LEU43       0.0001
     22  CD2       97.3680   28.8270   33.7940 C.3    43  LEU43       0.0001
     23  N        106.8560   33.8350   39.0800 N.3    56  ASN56      -0.1240
     24  CA       106.6890   32.5030   38.5040 C.3    56  ASN56       0.1653
     25  C        105.7240   31.7160   39.4050 C.2    56  ASN56       0.2266
     26  O        106.1530   31.0510   40.3400 O.2    56  ASN56      -0.2867
     27  CB       108.0430   31.7890   38.3810 C.3    56  ASN56       0.1155
     28  CG       107.9290   30.3490   37.8360 C.2    56  ASN56       0.2627
     29  OD1      108.7850   29.5000   38.1150 O.2    56  ASN56      -0.2716
     30  ND2      106.8770   30.0720   37.0770 N.am   56  ASN56      -0.0877
     31  N        102.6690   28.8810   39.8720 N.3    58  TYR58      -0.1227
     32  CA       102.2100   27.6330   39.3110 C.3    58  TYR58       0.1736
     33  C        101.7090   26.6720   40.3870 C.2    58  TYR58       0.2595
     34  O        102.1640   26.7240   41.5350 O.2    58  TYR58      -0.2718
     35  CB       103.3540   26.9920   38.5450 C.3    58  TYR58       0.0548
     36  CG       104.5780   26.6610   39.3790 C.ar   58  TYR58      -0.0200
     37  CD1      104.6790   25.4690   40.0740 C.ar   58  TYR58      -0.0009
     38  CD2      105.6610   27.5340   39.4330 C.ar   58  TYR58      -0.0009
     39  CE1      105.8390   25.1600   40.7990 C.ar   58  TYR58       0.0417
     40  CE2      106.8140   27.2390   40.1530 C.ar   58  TYR58       0.0417
     41  CZ       106.8980   26.0580   40.8300 C.ar   58  TYR58       0.1957
     42  OH       108.0290   25.7910   41.5800 O.3    58  TYR58      -0.2866
     43  N        100.7550   25.8240   40.0270 N.am   59  ALA59      -0.1966
     44  CA       100.2450   24.8250   40.9440 C.3    59  ALA59       0.1728
     45  C        101.1880   23.5970   40.9310 C.2    59  ALA59       0.2617
     46  O        101.3280   22.9280   39.8990 O.2    59  ALA59      -0.2715
     47  CB        98.8290   24.4370   40.5400 C.3    59  ALA59       0.0334
     48  N        101.8440   23.2920   42.0520 N.am   60  GLY60      -0.1940
     49  CA       102.7490   22.1460   42.0700 C.3    60  GLY60       0.2014
     50  C        102.4060   21.0510   43.0610 C.2    60  GLY60       0.2638
     51  O        101.2420   20.9260   43.4700 O.2    60  GLY60      -0.2714
     52  N        103.3840   20.1940   43.3630 N.am   61  ASP61      -0.1971
     53  CA       103.2320   19.1230   44.3630 C.3    61  ASP61       0.1709
     54  C        104.3450   19.3470   45.4230 C.2    61  ASP61       0.2293
     55  O        105.1740   20.2610   45.2530 O.2    61  ASP61      -0.2864
     56  CB       103.2830   17.7120   43.7370 C.3    61  ASP61       0.1436
     57  CG       104.5160   17.4660   42.8520 C.2    61  ASP61       0.3671
     58  OD1      105.6620   17.7870   43.2560 O.co2  61  ASP61      -0.2456
     59  OD2      104.3290   16.8870   41.7480 O.co2  61  ASP61      -0.2456
     60  N        107.2930   18.1950   46.0680 N.3    63  ALA63      -0.1231
     61  CA       108.6680   18.2570   45.6320 C.3    63  ALA63       0.1694
     62  C        109.0600   19.6530   45.2000 C.2    63  ALA63       0.2592
     63  O        110.2360   19.9690   45.2210 O.2    63  ALA63      -0.2718
     64  CB       108.9160   17.2900   44.5180 C.3    63  ALA63       0.0304
     65  N        108.0980   20.5040   44.8400 N.am   64  ASP64      -0.1974
     66  CA       108.4090   21.8670   44.3750 C.3    64  ASP64       0.1709
     67  C        108.7850   22.8590   45.4360 C.2    64  ASP64       0.2293
     68  O        109.2210   23.9590   45.1030 O.2    64  ASP64      -0.2864
     69  CB       107.2490   22.5050   43.6340 C.3    64  ASP64       0.1436
     70  CG       106.9170   21.7990   42.3580 C.2    64  ASP64       0.3671
     71  OD1      107.8050   21.6430   41.4810 O.co2  64  ASP64      -0.2456
     72  OD2      105.7380   21.4060   42.2370 O.co2  64  ASP64      -0.2456
@<TRIPOS>BOND
     1    22    20    1
     2    21    20    1
     3    20    19    1
     4     9     7   ar
     5    19    16    1
     6    18    17    2
     7     8     7   ar
     8     7     6    1
     9    16    17    1
    10    16    15    1
    11     6     5    1
    12    30    28   am
    13    15    12   am
    14     4     3    2
    15    28    29    2
    16    28    27    1
    17    13    12    2
    18     5     2    1
    19    12    11    1
    20     3     2    1
    21    27    24    1
    22    24    23    1
    23    24    25    1
    24    35    32    1
    25    35    36    1
    26     2     1    1
    27    32    31    1
    28    32    33    1
    29    14    11    1
    30    36    38   ar
    31    36    37   ar
    32    25    26    2
    33    38    40   ar
    34    11    10    1
    35    46    45    2
    36    43    33   am
    37    43    44    1
    38    37    39   ar
    39    40    41   ar
    40    33    34    2
    41    47    44    1
    42    39    41   ar
    43    41    42    1
    44    45    44    1
    45    45    48   am
    46    71    70   ar
    47    59    57   ar
    48    48    49    1
    49    49    50    1
    50    72    70   ar
    51    70    69    1
    52    57    58   ar
    53    57    56    1
    54    50    52   am
    55    50    51    2
    56    52    53    1
    57    69    66    1
    58    56    53    1
    59    53    54    1
    60    66    65    1
    61    66    67    1
    62    64    61    1
    63    65    62   am
    64    68    67    2
    65    62    63    2
    66    62    61    1
    67    55    54    2
    68    61    60    1
