@<TRIPOS>MOLECULE
tmp/1a61B01.pdb
 241 242 0 0 0
SMALL
GASTEIGER

@<TRIPOS>ATOM
      1  N         14.6050   -7.8020    9.2820 N.3    27  LEU27      -0.1231
      2  CA        15.6450   -8.1370   10.2650 C.3    27  LEU27       0.1693
      3  C         15.1350   -7.9360   11.6810 C.2    27  LEU27       0.2592
      4  O         14.9130   -8.9100   12.4430 O.2    27  LEU27      -0.2718
      5  CB        16.8850   -7.3350    9.9090 C.3    27  LEU27       0.0284
      6  CG        17.9010   -8.1970    9.1680 C.3    27  LEU27       0.0019
      7  CD1       17.1920   -9.2930    8.3380 C.3    27  LEU27       0.0001
      8  CD2       18.7380   -7.2460    8.3210 C.3    27  LEU27       0.0001
      9  N         14.7570   -6.6840   11.9510 N.am   28  CYS28      -0.1970
     10  CA        14.2510   -6.3780   13.3140 C.3    28  CYS28       0.1712
     11  C         13.4320   -5.0840   13.1670 C.2    28  CYS28       0.2296
     12  O         13.4010   -4.4480   12.1000 O.2    28  CYS28      -0.2864
     13  CB        15.4420   -6.1270   14.2400 C.3    28  CYS28       0.0983
     14  SG        16.6300   -7.4000   14.7620 S.3    28  CYS28      -0.0798
     15  N         22.6030   -6.9630   18.7460 N.3    43  HIS43      -0.1241
     16  CA        22.5300   -8.3650   18.2700 C.3    43  HIS43       0.1621
     17  C         21.7980   -8.5490   16.9260 C.2    43  HIS43       0.2264
     18  O         21.9340   -9.5840   16.2180 O.2    43  HIS43      -0.2867
     19  CB        21.9090   -9.1480   19.4390 C.3    43  HIS43       0.0745
     20  CG        20.4070   -9.1570   19.4210 C.ar   43  HIS43       0.0817
     21  ND1       19.6000   -8.5390   20.3560 N.ar   43  HIS43      -0.2268
     22  CD2       19.5790   -9.7590   18.5260 C.ar   43  HIS43       0.1154
     23  CE1       18.3380   -8.7000   19.9720 C.ar   43  HIS43       0.1986
     24  NE2       18.2720   -9.4450   18.8820 N.ar   43  HIS43      -0.2212
     25  N         25.8580  -11.1590   15.5780 N.3    47  TYR47      -0.1241
     26  CA        25.5770  -12.3230   16.4410 C.3    47  TYR47       0.1605
     27  C         26.2410  -13.5600   15.8220 C.2    47  TYR47       0.2264
     28  O         25.6500  -14.4390   15.1770 O.2    47  TYR47      -0.2867
     29  CB        24.0820  -12.4390   16.6730 C.3    47  TYR47       0.0534
     30  CG        23.7270  -13.2950   17.8560 C.ar   47  TYR47      -0.0201
     31  CD1       24.1960  -12.9390   19.1370 C.ar   47  TYR47      -0.0009
     32  CD2       23.0430  -14.4780   17.7050 C.ar   47  TYR47      -0.0009
     33  CE1       23.9340  -13.7580   20.2230 C.ar   47  TYR47       0.0417
     34  CE2       22.8070  -15.3400   18.7880 C.ar   47  TYR47       0.0417
     35  CZ        23.2160  -14.9330   20.0480 C.ar   47  TYR47       0.1957
     36  OH        22.9560  -15.7640   21.1100 O.3    47  TYR47      -0.2866
     37  N         24.9720  -17.3530   15.4810 N.3    50  TRP50      -0.1241
     38  CA        23.9870  -17.6430   14.4220 C.3    50  TRP50       0.1605
     39  C         24.6070  -17.2490   13.0970 C.2    50  TRP50       0.2264
     40  O         23.8110  -17.0510   12.1860 O.2    50  TRP50      -0.2867
     41  CB        22.6850  -16.8730   14.4790 C.3    50  TRP50       0.0550
     42  CG        21.8230  -17.3300   15.5650 C.ar   50  TRP50       0.0003
     43  CD1       22.0220  -18.4840   16.2880 C.ar   50  TRP50       0.0946
     44  CD2       20.6690  -16.6740   16.0990 C.ar   50  TRP50       0.0152
     45  NE1       21.0330  -18.5890   17.2520 N.ar   50  TRP50      -0.2442
     46  CE2       20.2140  -17.4760   17.1690 C.ar   50  TRP50       0.0810
     47  CE3       20.0110  -15.5020   15.7800 C.ar   50  TRP50       0.0012
     48  CZ2       19.1150  -17.1600   17.9510 C.ar   50  TRP50       0.0191
     49  CZ3       18.9310  -15.1820   16.5770 C.ar   50  TRP50       0.0001
     50  CH2       18.4980  -15.9650   17.6520 C.ar   50  TRP50       0.0015
     51  N         25.4320  -14.3020   12.2230 N.3    52  LYS52      -0.1245
     52  CA        24.8150  -13.0330   11.7630 C.3    52  LYS52       0.1561
     53  C         25.8410  -11.9290   11.9790 C.2    52  LYS52       0.2260
     54  O         26.3060  -11.6780   13.1010 O.2    52  LYS52      -0.2867
     55  CB        23.5200  -12.8300   12.4820 C.3    52  LYS52       0.0271
     56  CG        22.6420  -11.6300   12.2330 C.3    52  LYS52       0.0035
     57  CD        21.2420  -11.9320   12.8090 C.3    52  LYS52       0.0206
     58  CE        20.4460  -10.7260   13.2680 C.3    52  LYS52       0.1093
     59  NZ        20.1190  -10.9500   14.7220 N.3    52  LYS52      -0.1314
     60  N         27.9380  -10.4270   23.2820 N.3    92  TRP92      -0.1298
     61  CA        27.2010  -11.3870   22.4750 C.3    92  TRP92       0.1291
     62  C         27.5350  -12.7980   22.9690 C.3    92  TRP92       0.2013
     63  O         26.6250  -13.6470   22.7750 O.3    92  TRP92      -0.2188
     64  CB        27.4890  -11.2500   20.9850 C.3    92  TRP92       0.0497
     65  CG        28.9140  -11.3670   20.6590 C.ar   92  TRP92      -0.0001
     66  CD1       29.6920  -10.2720   20.4160 C.ar   92  TRP92       0.0946
     67  CD2       29.6880  -12.5500   20.3650 C.ar   92  TRP92       0.0152
     68  NE1       30.9490  -10.7370   20.0600 N.ar   92  TRP92      -0.2442
     69  CE2       31.0040  -12.1130   20.1420 C.ar   92  TRP92       0.0810
     70  CE3       29.4640  -13.9280   20.5600 C.ar   92  TRP92       0.0012
     71  CZ2       32.0560  -13.0050   19.8610 C.ar   92  TRP92       0.0191
     72  CZ3       30.4430  -14.8400   20.1960 C.ar   92  TRP92       0.0001
     73  CH2       31.7310  -14.3810   19.8590 C.ar   92  TRP92       0.0015
     74  N         27.9230  -14.0240   26.3300 N.3    94  GLU94      -0.1231
     75  CA        27.2370  -14.6280   27.4460 C.3    94  GLU94       0.1699
     76  C         25.7820  -14.1450   27.5260 C.2    94  GLU94       0.2592
     77  O         24.9030  -15.0460   27.4130 O.2    94  GLU94      -0.2718
     78  CB        27.8890  -14.3120   28.7930 C.3    94  GLU94       0.0402
     79  CG        27.1790  -14.7010   30.0910 C.3    94  GLU94       0.1161
     80  CD        27.6940  -13.9680   31.3300 C.2    94  GLU94       0.3649
     81  OE1       28.6740  -13.2010   31.2510 O.co2  94  GLU94      -0.2457
     82  OE2       27.0480  -14.0610   32.4170 O.co2  94  GLU94      -0.2457
     83  N         25.5230  -12.8390   27.7300 N.am   95  ASN95      -0.1960
     84  CA        24.1050  -12.5400   27.9460 C.3    95  ASN95       0.1819
     85  C         23.4640  -11.4430   27.1390 C.2    95  ASN95       0.2621
     86  O         22.5160  -10.8790   27.7360 O.2    95  ASN95      -0.2715
     87  CB        23.9500  -12.3760   29.4980 C.3    95  ASN95       0.1195
     88  CG        24.9110  -11.3390   30.0440 C.2    95  ASN95       0.2630
     89  OD1       25.5390  -10.6850   29.1900 O.2    95  ASN95      -0.2716
     90  ND2       24.7360  -10.8120   31.2360 N.am   95  ASN95      -0.0877
     91  N         24.0550  -10.8190   26.1730 N.am   96  LEU96      -0.1977
     92  CA        23.4740   -9.7390   25.3460 C.3    96  LEU96       0.1596
     93  C         23.5680   -8.4470   26.1480 C.2    96  LEU96       0.2287
     94  O         22.6200   -7.6410   26.1180 O.2    96  LEU96      -0.2864
     95  CB        22.0460  -10.0400   24.8600 C.3    96  LEU96       0.0297
     96  CG        21.8490  -11.0160   23.7150 C.3    96  LEU96       0.0022
     97  CD1       20.5520  -10.9120   22.9110 C.3    96  LEU96       0.0001
     98  CD2       23.0270  -10.9210   22.7500 C.3    96  LEU96       0.0001
     99  N         19.9240  -16.9760   33.2010 N.3   171  ILE171     -0.1245
    100  CA        20.7900  -16.0020   32.5110 C.3   171  ILE171      0.1561
    101  C         21.1570  -14.9320   33.5620 C.2   171  ILE171      0.2260
    102  O         20.3450  -14.4630   34.3420 O.2   171  ILE171     -0.2867
    103  CB        20.1790  -15.3660   31.2110 C.3   171  ILE171      0.0252
    104  CG1       19.6870  -16.4830   30.2190 C.3   171  ILE171      0.0019
    105  CG2       21.0520  -14.3860   30.3980 C.3   171  ILE171      0.0019
    106  CD1       20.9240  -17.0950   29.5280 C.3   171  ILE171      0.0001
    107  N          3.7310   -9.8530   25.5890 N.3   191  ASP191     -0.1225
    108  CA         5.2120   -9.8760   25.5560 C.3   191  ASP191      0.1805
    109  C          5.5420   -9.4640   24.0890 C.2   191  ASP191      0.2598
    110  O          4.5920   -9.3490   23.2670 O.2   191  ASP191     -0.2718
    111  CB         5.6770  -11.2790   25.9350 C.3   191  ASP191      0.1424
    112  CG         7.1240  -11.5830   26.2310 C.2   191  ASP191      0.3668
    113  OD1        7.8350  -10.5450   26.3700 O.co2 191  ASP191     -0.2456
    114  OD2        7.6380  -12.7470   26.3810 O.co2 191  ASP191     -0.2456
    115  N          6.7840   -9.1270   23.8540 N.am  192  ALA192     -0.1966
    116  CA         7.3830   -8.9130   22.5630 C.3   192  ALA192      0.1728
    117  C          7.6620  -10.3560   22.0910 C.2   192  ALA192      0.2616
    118  O          7.4470  -11.3020   22.8850 O.2   192  ALA192     -0.2715
    119  CB         8.6900   -8.0800   22.5740 C.3   192  ALA192      0.0334
    120  N          8.1670  -10.6040   20.9040 N.am  193  CYS193     -0.1954
    121  CA         8.4520  -12.0580   20.6290 C.3   193  CYS193      0.1843
    122  C          9.5540  -11.9530   19.6170 C.2   193  CYS193      0.2625
    123  O          9.8700  -10.8100   19.2470 O.2   193  CYS193     -0.2714
    124  CB         7.1850  -12.7700   20.2240 C.3   193  CYS193      0.0997
    125  SG         7.1990  -14.5670   20.2040 S.3   193  CYS193     -0.0797
    126  N          9.9670  -13.0380   19.0030 N.am  194  GLU194     -0.1963
    127  CA        11.0080  -12.9930   17.9780 C.3   194  GLU194      0.1733
    128  C         10.5250  -12.1290   16.8300 C.2   194  GLU194      0.2617
    129  O          9.4080  -12.3800   16.3420 O.2   194  GLU194     -0.2715
    130  CB        11.4030  -14.4060   17.5570 C.3   194  GLU194      0.0429
    131  CG        12.4130  -15.1500   18.4260 C.3   194  GLU194      0.1163
    132  CD        11.9240  -15.7430   19.7200 C.2   194  GLU194      0.3649
    133  OE1       10.7070  -15.9510   19.6740 O.co2 194  GLU194     -0.2457
    134  OE2       12.4900  -16.0180   20.7710 O.co2 194  GLU194     -0.2457
    135  N         11.4140  -11.3560   16.2650 N.am  195  GLY195     -0.1940
    136  CA        11.2490  -10.4130   15.1760 C.3   195  GLY195      0.2014
    137  C         10.8740   -9.0530   15.7450 C.2   195  GLY195      0.2639
    138  O         11.0080   -8.1940   14.8800 O.2   195  GLY195     -0.2714
    139  N         10.4880   -8.8460   17.0010 N.am  196  ASP196     -0.1957
    140  CA        10.3320   -7.5310   17.6620 C.3   196  ASP196      0.1840
    141  C         11.6320   -6.8170   18.0770 C.2   196  ASP196      0.2619
    142  O         11.7910   -5.5690   18.2240 O.2   196  ASP196     -0.2715
    143  CB         9.5160   -7.7440   18.9390 C.3   196  ASP196      0.1450
    144  CG         8.0830   -8.0930   18.5670 C.2   196  ASP196      0.3671
    145  OD1        7.7750   -7.4330   17.5310 O.co2 196  ASP196     -0.2456
    146  OD2        7.3360   -8.6280   19.4070 O.co2 196  ASP196     -0.2456
    147  N         12.6890   -7.6120   18.2160 N.am  197  SER197     -0.2003
    148  CA        13.9950   -7.1600   18.5950 C.3   197  SER197      0.1610
    149  C         14.2820   -5.7680   18.0370 C.3   197  SER197      0.2063
    150  O         14.0790   -5.6710   16.8270 O.3   197  SER197     -0.2184
    151  CB        15.1060   -8.0180   18.0580 C.3   197  SER197      0.2063
    152  OG        15.4340   -9.1650   18.7260 O.3   197  SER197     -0.2184
    153  N         13.8940   -3.6930   22.7010 N.3   217  VAL217     -0.1231
    154  CA        13.5460   -5.1590   22.7700 C.3   217  VAL217      0.1692
    155  C         14.8800   -5.9400   22.6270 C.2   217  VAL217      0.2593
    156  O         15.6630   -5.7250   21.6740 O.2   217  VAL217     -0.2718
    157  CB        12.4410   -5.6420   21.8440 C.3   217  VAL217      0.0266
    158  CG1       12.0400   -7.1180   22.1100 C.3   217  VAL217      0.0020
    159  CG2       11.1480   -4.8320   21.7800 C.3   217  VAL217      0.0020
    160  N         15.0920   -6.8330   23.6230 N.am  218  SER218     -0.1938
    161  CA        16.4180   -7.5140   23.5540 C.3   218  SER218      0.2055
    162  C         16.3290   -9.0160   23.4530 C.2   218  SER218      0.2643
    163  O         16.7220   -9.6320   22.4430 O.2   218  SER218     -0.2714
    164  CB        17.1870   -7.2570   24.8600 C.3   218  SER218      0.2130
    165  OG        18.5360   -7.6440   24.6590 O.3   218  SER218     -0.2179
    166  N         15.7320   -9.5760   24.5250 N.am  219  TRP219     -0.1959
    167  CA        15.6370  -11.0170   24.6190 C.3   219  TRP219      0.1771
    168  C         14.5760  -11.5550   25.5220 C.2   219  TRP219      0.2620
    169  O         13.9070  -10.8870   26.3310 O.2   219  TRP219     -0.2715
    170  CB        17.0040  -11.6310   24.9980 C.3   219  TRP219      0.0590
    171  CG        17.5780  -11.2810   26.3020 C.ar  219  TRP219      0.0006
    172  CD1       18.3880  -10.2100   26.5960 C.ar  219  TRP219      0.0946
    173  CD2       17.4070  -12.0290   27.5490 C.ar  219  TRP219      0.0152
    174  NE1       18.7610  -10.2990   27.9340 N.ar  219  TRP219     -0.2442
    175  CE2       18.1900  -11.3940   28.5270 C.ar  219  TRP219      0.0810
    176  CE3       16.8040  -13.2560   27.8730 C.ar  219  TRP219      0.0012
    177  CZ2       18.2800  -11.8790   29.8220 C.ar  219  TRP219      0.0191
    178  CZ3       16.9090  -13.7510   29.1560 C.ar  219  TRP219      0.0001
    179  CH2       17.5920  -13.0530   30.1530 C.ar  219  TRP219      0.0015
    180  N         14.4010  -12.8530   25.2580 N.am  220  GLY220     -0.1940
    181  CA        13.4890  -13.5740   26.1900 C.3   220  GLY220      0.2014
    182  C         13.7040  -15.0700   25.9790 C.2   220  GLY220      0.2642
    183  O         14.5220  -15.5250   25.1570 O.2   220  GLY220     -0.2714
    184  N         12.8410  -15.7680   26.6840 N.am  221  GLU221     -0.1917
    185  CA        12.8810  -17.2310   26.6350 C.3   221  GLU221      0.1949
    186  C         11.4330  -17.6580   26.4180 C.2   221  GLU221      0.2659
    187  O         10.5820  -17.5050   27.2870 O.2   221  GLU221     -0.2711
    188  CB        13.5080  -17.8330   27.8790 C.2   221  GLU221      0.0111
    189  CG        14.9580  -17.4910   28.2790 C.2   221  GLU221      0.0838
    190  CD        15.3560  -17.9090   29.6760 C.2   221  GLU221      0.3877
    191  OE1       14.7280  -17.4120   30.6390 O.co2 221  GLU221     -0.2406
    192  OE2       16.3180  -18.5910   29.9640 O.co2 221  GLU221     -0.2406
    193  N         11.2230  -17.9830   25.1300 N.am  222  GLY222     -0.1937
    194  CA         9.7920  -18.2350   24.7770 C.3   222  GLY222      0.2014
    195  C          9.1760  -16.8400   24.5460 C.2   222  GLY222      0.2639
    196  O          9.9170  -15.8130   24.5070 O.2   222  GLY222     -0.2714
    197  N          7.8680  -16.8960   24.7310 N.am  223  CYS223     -0.1967
    198  CA         6.9950  -15.7360   24.5280 C.3   223  CYS223      0.1712
    199  C          5.6900  -15.9260   25.2930 C.2   223  CYS223      0.2296
    200  O          4.8620  -16.8190   25.0820 O.2   223  CYS223     -0.2864
    201  CB         6.6540  -15.4540   23.0710 C.3   223  CYS223      0.0983
    202  SG         8.0170  -15.2110   21.9360 S.3   223  CYS223     -0.0798
    203  N          9.4710  -13.1630   31.6260 N.3   229  TYR229     -0.1227
    204  CA         9.4380  -11.7530   31.2640 C.3   229  TYR229      0.1736
    205  C         10.3740  -11.3990   30.0990 C.2   229  TYR229      0.2596
    206  O         11.3790  -12.0770   29.7750 O.2   229  TYR229     -0.2718
    207  CB         9.8180  -10.9150   32.5000 C.3   229  TYR229      0.0548
    208  CG         9.0980  -11.2920   33.7530 C.ar  229  TYR229     -0.0200
    209  CD1        9.4960  -12.3660   34.5820 C.ar  229  TYR229     -0.0009
    210  CD2        7.8340  -10.7030   33.9650 C.ar  229  TYR229     -0.0009
    211  CE1        8.7070  -12.6730   35.7070 C.ar  229  TYR229      0.0417
    212  CE2        7.0170  -11.0570   35.0340 C.ar  229  TYR229      0.0417
    213  CZ         7.4710  -12.0800   35.8760 C.ar  229  TYR229      0.1957
    214  OH         6.6420  -12.3010   36.9460 O.3   229  TYR229     -0.2866
    215  N          9.9760  -10.2940   29.4300 N.am  230  GLY230     -0.1942
    216  CA        10.8350   -9.8370   28.3340 C.3   230  GLY230      0.2014
    217  C         11.9410   -8.9720   28.9620 C.2   230  GLY230      0.2639
    218  O         11.6400   -8.4030   30.0310 O.2   230  GLY230     -0.2714
    219  N         13.0790   -8.9710   28.2660 N.am  231  PHE231     -0.1959
    220  CA        14.2410   -8.1980   28.7260 C.3   231  PHE231      0.1771
    221  C         14.5580   -7.1280   27.6860 C.2   231  PHE231      0.2616
    222  O         14.5390   -7.4550   26.4760 O.2   231  PHE231     -0.2715
    223  CB        15.5030   -9.0170   28.9960 C.3   231  PHE231      0.0574
    224  CG        15.4210   -9.6880   30.3410 C.ar  231  PHE231     -0.0200
    225  CD1       14.5730  -10.7820   30.4700 C.ar  231  PHE231     -0.0042
    226  CD2       16.0660   -9.1520   31.4550 C.ar  231  PHE231     -0.0042
    227  CE1       14.3620  -11.4570   31.6750 C.ar  231  PHE231     -0.0003
    228  CE2       15.9040   -9.8710   32.6500 C.ar  231  PHE231     -0.0003
    229  CZ        14.9850  -10.9090   32.7900 C.ar  231  PHE231     -0.0000
    230  N         14.8820   -5.9420   28.1850 N.am  232  TYR232     -0.2027
    231  CA        15.1160   -4.8340   27.2250 C.3   232  TYR232      0.1325
    232  C         16.4180   -4.1380   27.5630 C.3   232  TYR232      0.2039
    233  O         16.5730   -4.0910   28.7950 O.3   232  TYR232     -0.2185
    234  CB        14.0000   -3.7720   27.5100 C.3   232  TYR232      0.0507
    235  CG        12.6100   -4.3190   27.3260 C.ar  232  TYR232     -0.0202
    236  CD1       11.9470   -5.0630   28.2760 C.ar  232  TYR232     -0.0009
    237  CD2       12.0100   -4.1530   26.0840 C.ar  232  TYR232     -0.0009
    238  CE1       10.7520   -5.6920   27.9850 C.ar  232  TYR232      0.0417
    239  CE2       10.8070   -4.7460   25.7650 C.ar  232  TYR232      0.0417
    240  CZ        10.2580   -5.5860   26.6740 C.ar  232  TYR232      0.1957
    241  OH         9.0560   -6.0950   26.3240 O.3   232  TYR232     -0.2866
@<TRIPOS>BOND
     1     8     6    1
     2     7     6    1
     3     6     5    1
     4     1     2    1
     5     5     2    1
     6     2     3    1
     7     3     9   am
     8     3     4    2
     9    52    53    1
    10    52    51    1
    11    52    55    1
    12     9    10    1
    13    53    54    2
    14    12    11    2
    15    40    39    2
    16    56    55    1
    17    56    57    1
    18    57    58    1
    19    39    38    1
    20    11    10    1
    21    58    59    1
    22    10    13    1
    23    13    14    1
    24    38    41    1
    25    38    37    1
    26    41    42    1
    27   138   137    2
    28   136   137    1
    29   136   135    1
    30    28    27    2
    31    42    44   ar
    32    42    43   ar
    33    25    26    1
    34   137   139   am
    35    47    44   ar
    36    47    49   ar
    37    27    26    1
    38    44    46   ar
    39    18    17    2
    40   135   128   am
    41    43    45   ar
    42   129   128    2
    43    26    29    1
    44    49    50   ar
    45    29    30    1
    46   150   149    1
    47   128   127    1
    48    17    16    1
    49   139   140    1
    50    46    45   ar
    51    46    48   ar
    52   145   144   ar
    53   130   127    1
    54   130   131    1
    55    50    48   ar
    56   140   141    1
    57   140   143    1
    58    32    30   ar
    59    32    34   ar
    60    30    31   ar
    61   127   126    1
    62   149   148    1
    63   151   148    1
    64   151   152    1
    65   141   147   am
    66   141   142    2
    67   147   148    1
    68    16    15    1
    69    16    19    1
    70   131   132    1
    71    22    24   ar
    72    22    20   ar
    73   144   143    1
    74   144   146   ar
    75    34    35   ar
    76    24    23   ar
    77   126   122   am
    78    31    33   ar
    79   123   122    2
    80    20    19    1
    81    20    21   ar
    82   122   121    1
    83   133   132   ar
    84   132   134   ar
    85    73    71   ar
    86    73    72   ar
    87    71    69   ar
    88    23    21   ar
    89    35    33   ar
    90    35    36    1
    91    68    69   ar
    92    68    66   ar
    93    69    67   ar
    94    72    70   ar
    95   125   124    1
    96   125   202    1
    97   124   121    1
    98    67    70   ar
    99    67    65   ar
   100    66    65   ar
   101   121   120    1
   102    65    64    1
   103   120   117   am
   104    64    61    1
   105   156   155    2
   106   159   157    1
   107   157   158    1
   108   157   154    1
   109   202   201    1
   110   117   116    1
   111   117   118    2
   112   163   162    2
   113    61    62    1
   114    61    60    1
   115   116   119    1
   116   116   115    1
   117   155   154    1
   118   155   160   am
   119   153   154    1
   120    98    96    1
   121    63    62    1
   122    97    96    1
   123   201   198    1
   124   110   109    2
   125   162   161    1
   126   162   166   am
   127   161   160    1
   128   161   164    1
   129    96    95    1
   130   115   109   am
   131   109   108    1
   132   196   195    2
   133   166   167    1
   134   198   197    1
   135   198   199    1
   136   195   197   am
   137   195   194    1
   138   167   170    1
   139   167   168    1
   140   165   164    1
   141   194   193    1
   142    95    92    1
   143   170   171    1
   144   200   199    2
   145   193   186   am
   146   183   182    2
   147   180   168   am
   148   180   181    1
   149    92    93    1
   150    92    91    1
   151   168   169    2
   152   108   107    1
   153   108   111    1
   154   239   237   ar
   155   239   240   ar
   156   111   112    1
   157   182   181    1
   158   182   184   am
   159   237   235   ar
   160    94    93    2
   161    91    85   am
   162   112   113   ar
   163   112   114   ar
   164   171   172   ar
   165   171   173   ar
   166   241   240    1
   167    74    75    1
   168   186   185    1
   169   186   187    2
   170   222   221    2
   171   172   174   ar
   172   185   184    1
   173   185   188    1
   174   240   238   ar
   175    85    86    2
   176    85    84    1
   177   231   234    1
   178   231   232    1
   179   231   230    1
   180   235   234    1
   181   235   236   ar
   182    77    76    2
   183    75    76    1
   184    75    78    1
   185    76    83   am
   186   173   176   ar
   187   173   175   ar
   188   232   233    1
   189   221   230   am
   190   221   220    1
   191    83    84    1
   192   176   178   ar
   193   188   189    2
   194   174   175   ar
   195    84    87    1
   196   238   236   ar
   197   219   220    1
   198   219   217   am
   199   189   190    1
   200   216   217    1
   201   216   215    1
   202   175   177   ar
   203   220   223    1
   204    78    79    1
   205   217   218    2
   206   223   224    1
   207   178   179   ar
   208    89    88    2
   209   215   205   am
   210    87    88    1
   211   106   104    1
   212   190   192   ar
   213   190   191   ar
   214   206   205    2
   215   177   179   ar
   216    88    90   am
   217    79    80    1
   218   205   204    1
   219   104   103    1
   220   224   225   ar
   221   224   226   ar
   222   105   103    1
   223   225   227   ar
   224   103   100    1
   225    81    80   ar
   226   204   203    1
   227   204   207    1
   228    80    82   ar
   229   226   228   ar
   230   227   229   ar
   231   207   208    1
   232   100    99    1
   233   100   101    1
   234   228   229   ar
   235   101   102    2
   236   208   210   ar
   237   208   209   ar
   238   210   212   ar
   239   209   211   ar
   240   212   213   ar
   241   211   213   ar
   242   213   214    1
