@<TRIPOS>MOLECULE
tmp/1a6eB00.pdb
 192 181 0 0 0
SMALL
GASTEIGER

@<TRIPOS>ATOM
      1  N         45.4020   21.6570  -13.2640 N.3    21  SER21      -0.1202
      2  CA        46.0230   21.1660  -14.4760 C.3    21  SER21       0.2020
      3  C         46.9580   22.1870  -15.0860 C.2    21  SER21       0.2619
      4  O         47.5390   21.9480  -16.1350 O.2    21  SER21      -0.2717
      5  CB        44.9500   20.8330  -15.4990 C.3    21  SER21       0.2103
      6  OG        44.3740   22.0170  -16.0200 O.3    21  SER21      -0.2182
      7  N         47.1090   23.3310  -14.4410 N.am   22  LEU22      -0.1965
      8  CA        47.9540   24.3510  -15.0090 C.3    22  LEU22       0.1728
      9  C         49.4140   24.0920  -14.7890 C.2    22  LEU22       0.2617
     10  O         49.8310   23.7870  -13.6800 O.2    22  LEU22      -0.2715
     11  CB        47.6040   25.7140  -14.4300 C.3    22  LEU22       0.0311
     12  CG        48.3080   26.8730  -15.1220 C.3    22  LEU22       0.0022
     13  CD1       47.6480   27.0750  -16.4660 C.3    22  LEU22       0.0001
     14  CD2       48.2210   28.1330  -14.2850 C.3    22  LEU22       0.0001
     15  N         50.1950   24.1960  -15.8540 N.am   23  GLY23      -0.1941
     16  CA        51.6360   24.0430  -15.7310 C.3    23  GLY23       0.1998
     17  C         52.2480   22.6690  -15.8290 C.2    23  GLY23       0.2480
     18  O         51.5660   21.7090  -16.1740 O.2    23  GLY23      -0.2729
     19  N         53.5670   22.5710  -15.5930 N.am   24  PRO24      -0.2726
     20  CA        54.3790   21.3510  -15.6300 C.3    24  PRO24       0.1402
     21  C         54.1340   20.3790  -14.4740 C.2    24  PRO24       0.2269
     22  O         54.5590   19.2190  -14.5140 O.2    24  PRO24      -0.2865
     23  CB        55.8020   21.8930  -15.6340 C.3    24  PRO24       0.0296
     24  CG        55.6500   23.1790  -16.2900 C.3    24  PRO24       0.0237
     25  CD        54.4480   23.7430  -15.6090 C.3    24  PRO24       0.0939
     26  N         44.3150   16.6050  -20.1010 N.3    42  ASN42      -0.1240
     27  CA        44.8030   17.7710  -19.3720 C.3    42  ASN42       0.1653
     28  C         44.2760   19.0260  -20.0420 C.2    42  ASN42       0.2266
     29  O         44.1250   20.0570  -19.4040 O.2    42  ASN42      -0.2867
     30  CB        46.3170   17.8200  -19.3890 C.3    42  ASN42       0.1155
     31  CG        46.8620   19.1060  -18.8140 C.2    42  ASN42       0.2627
     32  OD1       47.0680   20.0940  -19.5330 O.2    42  ASN42      -0.2716
     33  ND2       47.1200   19.0990  -17.5180 N.am   42  ASN42      -0.0877
     34  N         42.3780   21.7990  -20.8230 N.3    44  GLY44      -0.1225
     35  CA        41.2720   22.4590  -20.1540 C.3    44  GLY44       0.1811
     36  C         40.0240   22.6830  -20.9980 C.2    44  GLY44       0.2280
     37  O         38.9280   22.6370  -20.4510 O.2    44  GLY44      -0.2866
     38  N         45.9990   27.7960  -27.2010 N.3    74  ASP74      -0.1225
     39  CA        46.7240   27.3890  -26.0130 C.3    74  ASP74       0.1805
     40  C         46.3380   28.4560  -24.9830 C.2    74  ASP74       0.2598
     41  O         46.2100   29.6270  -25.3270 O.2    74  ASP74      -0.2718
     42  CB        48.2300   27.3900  -26.3240 C.3    74  ASP74       0.1424
     43  CG        49.1010   26.9850  -25.1350 C.2    74  ASP74       0.3668
     44  OD1       48.8200   25.9610  -24.4710 O.co2  74  ASP74      -0.2456
     45  OD2       50.1090   27.6880  -24.8810 O.co2  74  ASP74      -0.2456
     46  N         46.0100   28.0460  -23.7650 N.am   75  GLY75      -0.1942
     47  CA        45.6670   29.0270  -22.7590 C.3    75  GLY75       0.2014
     48  C         44.2440   29.0050  -22.2460 C.2    75  GLY75       0.2640
     49  O         43.8270   29.9360  -21.5500 O.2    75  GLY75      -0.2714
     50  N         43.4940   27.9470  -22.5380 N.am   76  THR76      -0.1936
     51  CA        42.1090   27.8550  -22.0570 C.3    76  THR76       0.2028
     52  C         42.0210   27.6050  -20.5530 C.2    76  THR76       0.2643
     53  O         41.0650   28.0160  -19.9020 O.2    76  THR76      -0.2714
     54  CB        41.3340   26.7830  -22.7890 C.3    76  THR76       0.1808
     55  OG1       41.9720   25.5190  -22.5780 O.3    76  THR76      -0.2208
     56  CG2       41.3050   27.1030  -24.2620 C.3    76  THR76       0.0379
     57  N         42.9960   26.8860  -20.0130 N.am   77  THR77      -0.1936
     58  CA        43.0340   26.6560  -18.5810 C.3    77  THR77       0.2028
     59  C         43.3720   28.0210  -17.9310 C.2    77  THR77       0.2642
     60  O         42.8000   28.3930  -16.9010 O.2    77  THR77      -0.2714
     61  CB        44.0900   25.5950  -18.2340 C.3    77  THR77       0.1808
     62  OG1       43.6890   24.3270  -18.7750 O.3    77  THR77      -0.2208
     63  CG2       44.2810   25.4950  -16.7320 C.3    77  THR77       0.0379
     64  N         44.2450   28.7930  -18.5850 N.am   78  THR78      -0.1950
     65  CA        44.6370   30.1140  -18.1040 C.3    78  THR78       0.1897
     66  C         43.4760   31.0650  -18.0430 C.2    78  THR78       0.2313
     67  O         43.3090   31.7570  -17.0540 O.2    78  THR78      -0.2863
     68  CB        45.7050   30.7370  -18.9890 C.3    78  THR78       0.1794
     69  OG1       46.9800   30.2100  -18.6200 O.3    78  THR78      -0.2208
     70  CG2       45.7310   32.2260  -18.8320 C.3    78  THR78       0.0378
     71  N         57.5750   24.1780  -24.1210 N.3   139  THR139     -0.1203
     72  CA        56.8430   24.6470  -22.9530 C.3   139  THR139      0.1994
     73  C         55.3900   24.1310  -23.0330 C.2   139  THR139      0.2618
     74  O         54.8310   23.6740  -22.0360 O.2   139  THR139     -0.2717
     75  CB        56.9050   26.1970  -22.8560 C.3   139  THR139      0.1784
     76  OG1       58.2210   26.5900  -22.4460 O.3   139  THR139     -0.2211
     77  CG2       55.8850   26.7420  -21.8710 C.3   139  THR139      0.0376
     78  N         54.8010   24.1500  -24.2280 N.am  140  SER140     -0.1951
     79  CA        53.4450   23.6580  -24.4310 C.3   140  SER140      0.1924
     80  C         53.3860   22.1790  -24.0280 C.2   140  SER140      0.2314
     81  O         52.5460   21.7550  -23.2240 O.2   140  SER140     -0.2863
     82  CB        53.0720   23.7850  -25.8990 C.3   140  SER140      0.2116
     83  OG        51.7750   23.2620  -26.1090 O.3   140  SER140     -0.2180
     84  N         55.2740   20.6750  -22.1700 N.3   142  ASN142     -0.1225
     85  CA        55.6210   20.4890  -20.7680 C.3   142  ASN142      0.1785
     86  C         54.4440   20.2280  -19.8510 C.2   142  ASN142      0.2598
     87  O         54.5890   19.5260  -18.8610 O.2   142  ASN142     -0.2718
     88  CB        56.3880   21.6900  -20.2310 C.3   142  ASN142      0.1169
     89  CG        57.8580   21.4260  -20.1060 C.2   142  ASN142      0.2627
     90  OD1       58.6770   22.1860  -20.6200 O.2   142  ASN142     -0.2716
     91  ND2       58.2130   20.3550  -19.4070 N.am  142  ASN142     -0.0877
     92  N         53.3030   20.8400  -20.1250 N.am  143  SER143     -0.1938
     93  CA        52.1440   20.6230  -19.2730 C.3   143  SER143      0.2055
     94  C         51.4890   19.2700  -19.5630 C.2   143  SER143      0.2642
     95  O         51.0300   18.5880  -18.6480 O.2   143  SER143     -0.2714
     96  CB        51.1150   21.7420  -19.4580 C.3   143  SER143      0.2130
     97  OG        51.7260   23.0240  -19.4300 O.3   143  SER143     -0.2179
     98  N         51.4570   18.8830  -20.8380 N.am  144  LYS144     -0.1977
     99  CA        50.8400   17.6230  -21.2660 C.3   144  LYS144      0.1596
    100  C         51.6850   16.3930  -20.9360 C.2   144  LYS144      0.2287
    101  O         52.8710   16.4970  -20.6650 O.2   144  LYS144     -0.2864
    102  CB        50.5320   17.6760  -22.7660 C.3   144  LYS144      0.0298
    103  CG        49.2730   18.4580  -23.1510 C.3   144  LYS144      0.0038
    104  CD        49.0590   19.6820  -22.2820 C.3   144  LYS144      0.0206
    105  CE        47.9840   20.5880  -22.8460 C.3   144  LYS144      0.1093
    106  NZ        48.4570   21.3790  -24.0300 N.3   144  LYS144     -0.1314
    107  N         57.2270   33.2610  -19.9640 N.3   389  GLY389     -0.1210
    108  CA        56.2040   32.5370  -19.2410 C.3   389  GLY389      0.1956
    109  C         56.4710   32.3470  -17.7670 C.2   389  GLY389      0.2612
    110  O         57.0730   33.1940  -17.1240 O.2   389  GLY389     -0.2717
    111  N         55.9360   31.2530  -17.2310 N.am  390  GLY390     -0.1942
    112  CA        56.1090   30.8940  -15.8360 C.3   390  GLY390      0.2014
    113  C         55.5690   31.9020  -14.8530 C.2   390  GLY390      0.2639
    114  O         56.0670   32.0130  -13.7480 O.2   390  GLY390     -0.2714
    115  N         54.5480   32.6440  -15.2440 N.am  391  GLY391     -0.1954
    116  CA        54.0040   33.6290  -14.3280 C.3   391  GLY391      0.1869
    117  C         54.7450   34.9570  -14.3170 C.2   391  GLY391      0.2309
    118  O         54.3120   35.9100  -13.6690 O.2   391  GLY391     -0.2863
    119  N         47.6480   32.9860  -11.7210 N.3   426  ILE426     -0.1245
    120  CA        48.5380   32.1010  -12.4360 C.3   426  ILE426      0.1561
    121  C         49.7590   31.7020  -11.5950 C.2   426  ILE426      0.2260
    122  O         49.9810   30.5180  -11.3670 O.2   426  ILE426     -0.2867
    123  CB        48.9340   32.6990  -13.7720 C.3   426  ILE426      0.0252
    124  CG1       47.6680   33.0160  -14.5610 C.3   426  ILE426      0.0019
    125  CG2       49.7950   31.7390  -14.5260 C.3   426  ILE426      0.0019
    126  CD1       46.6600   31.8920  -14.5380 C.3   426  ILE426      0.0001
    127  N         50.4400   27.8810  -10.4910 N.3   430  LEU430     -0.1245
    128  CA        51.6980   27.2640  -10.9200 C.3   430  LEU430      0.1561
    129  C         52.4960   26.7970   -9.7170 C.2   430  LEU430      0.2260
    130  O         52.9750   25.6630   -9.6800 O.2   430  LEU430     -0.2867
    131  CB        52.5440   28.2430  -11.7340 C.3   430  LEU430      0.0270
    132  CG        52.1580   28.5010  -13.1830 C.3   430  LEU430      0.0019
    133  CD1       53.0800   29.5550  -13.7590 C.3   430  LEU430      0.0001
    134  CD2       52.2870   27.2220  -13.9580 C.3   430  LEU430      0.0001
    135  N         58.2690   31.5790  -12.1660 N.3   458  ILE458     -0.1231
    136  CA        58.4840   30.4620  -11.2770 C.3   458  ILE458      0.1692
    137  C         59.0070   29.2370  -11.9920 C.2   458  ILE458      0.2592
    138  O         58.2790   28.5990  -12.7530 O.2   458  ILE458     -0.2718
    139  CB        57.2180   30.0230  -10.5710 C.3   458  ILE458      0.0266
    140  CG1       56.4210   31.2280  -10.0880 C.3   458  ILE458      0.0019
    141  CG2       57.5850   29.1550   -9.3920 C.3   458  ILE458      0.0020
    142  CD1       55.3730   31.7160  -11.0690 C.3   458  ILE458      0.0001
    143  N         60.2700   28.9080  -11.7450 N.am  459  ASN459     -0.1960
    144  CA        60.8790   27.7170  -12.3230 C.3   459  ASN459      0.1819
    145  C         60.3280   26.6070  -11.4250 C.2   459  ASN459      0.2621
    146  O         60.9160   26.3010  -10.3860 O.2   459  ASN459     -0.2715
    147  CB        62.4070   27.8090  -12.1960 C.3   459  ASN459      0.1195
    148  CG        63.1260   26.5630  -12.7130 C.2   459  ASN459      0.2630
    149  OD1       62.9830   25.4760  -12.1560 O.2   459  ASN459     -0.2716
    150  ND2       63.9310   26.7280  -13.7510 N.am  459  ASN459     -0.0877
    151  N         59.1770   26.0460  -11.7970 N.am  460  VAL460     -0.1963
    152  CA        58.5160   24.9960  -11.0000 C.3   460  VAL460      0.1727
    153  C         59.3400   23.7590  -10.6420 C.2   460  VAL460      0.2616
    154  O         58.8940   22.9260   -9.8570 O.2   460  VAL460     -0.2715
    155  CB        57.1790   24.5230  -11.6380 C.3   460  VAL460      0.0290
    156  CG1       56.1340   25.6220  -11.5740 C.3   460  VAL460      0.0023
    157  CG2       57.4090   24.0920  -13.0690 C.3   460  VAL460      0.0023
    158  N         60.5330   23.6440  -11.2140 N.am  461  PHE461     -0.1974
    159  CA        61.4070   22.5090  -10.9420 C.3   461  PHE461      0.1639
    160  C         62.3900   22.8160   -9.7910 C.2   461  PHE461      0.2290
    161  O         62.5980   21.9960   -8.8960 O.2   461  PHE461     -0.2864
    162  CB        62.1740   22.1150  -12.2140 C.3   461  PHE461      0.0560
    163  CG        61.3000   21.9640  -13.4420 C.ar  461  PHE461     -0.0200
    164  CD1       60.4020   20.9030  -13.5570 C.ar  461  PHE461     -0.0042
    165  CD2       61.3930   22.8780  -14.4980 C.ar  461  PHE461     -0.0042
    166  CE1       59.6090   20.7500  -14.7070 C.ar  461  PHE461     -0.0003
    167  CE2       60.6040   22.7330  -15.6560 C.ar  461  PHE461     -0.0003
    168  CZ        59.7120   21.6670  -15.7590 C.ar  461  PHE461     -0.0000
    169  N         62.7920   33.6410  -16.9550 N.3   468  MET468     -0.1245
    170  CA        61.9960   32.7880  -17.8190 C.3   468  MET468      0.1570
    171  C         62.3900   32.6880  -19.2670 C.2   468  MET468      0.2261
    172  O         62.2760   31.6090  -19.8380 O.2   468  MET468     -0.2867
    173  CB        60.5210   33.1310  -17.7060 C.3   468  MET468      0.0387
    174  CG        59.9940   32.6660  -16.3980 C.3   468  MET468      0.0595
    175  SD        60.7930   31.0810  -16.0660 S.3   468  MET468     -0.1393
    176  CE        59.5370   30.1840  -15.1870 C.3   468  MET468      0.0692
    177  N         61.2430   29.2580  -20.9670 N.3   473  VAL473     -0.1245
    178  CA        59.7750   29.1480  -20.8770 C.3   473  VAL473      0.1561
    179  C         59.1980   30.4410  -21.4190 C.2   473  VAL473      0.2260
    180  O         59.2830   31.5120  -20.8260 O.2   473  VAL473     -0.2867
    181  CB        59.2510   28.8040  -19.4570 C.3   473  VAL473      0.0252
    182  CG1       60.0610   27.6660  -18.8700 C.3   473  VAL473      0.0019
    183  CG2       59.2800   29.9940  -18.5590 C.3   473  VAL473      0.0019
    184  N         56.0510   32.0070  -24.3380 N.3   475  GLU475     -0.1245
    185  CA        54.8290   31.7000  -25.0280 C.3   475  GLU475      0.1567
    186  C         54.4720   32.8220  -25.9510 C.2   475  GLU475      0.2260
    187  O         54.8780   33.9560  -25.7360 O.2   475  GLU475     -0.2867
    188  CB        53.7220   31.4750  -24.0080 C.3   475  GLU475      0.0388
    189  CG        53.5530   32.5930  -22.9910 C.3   475  GLU475      0.1160
    190  CD        52.9780   32.1010  -21.6710 C.2   475  GLU475      0.3649
    191  OE1       52.9810   30.8670  -21.4360 O.co2 475  GLU475     -0.2457
    192  OE2       52.5370   32.9520  -20.8630 O.co2 475  GLU475     -0.2457
@<TRIPOS>BOND
     1    38    39    1
     2    42    39    1
     3    42    43    1
     4    83    82    1
     5    39    40    1
     6   186   187    2
     7   186   185    1
     8    82    79    1
     9    41    40    2
    10    43    45   ar
    11    43    44   ar
    12   185   184    1
    13   185   188    1
    14    40    46   am
    15    79    78    1
    16    79    80    1
    17    56    54    1
    18    78    73   am
    19    71    72    1
    20   106   105    1
    21    80    81    2
    22   188   189    1
    23    46    47    1
    24   103   102    1
    25   103   104    1
    26    73    72    1
    27    73    74    2
    28   189   190    1
    29    72    75    1
    30    75    76    1
    31    75    77    1
    32   105   104    1
    33    54    55    1
    34    54    51    1
    35   102    99    1
    36    47    48    1
    37    50    48   am
    38    50    51    1
    39    48    49    2
    40    84    85    1
    41    51    52    1
    42   190   191   ar
    43   190   192   ar
    44   179   178    1
    45   179   180    2
    46    99   100    1
    47    99    98    1
    48    36    37    2
    49    36    35    1
    50   177   178    1
    51   100   101    2
    52   178   181    1
    53    98    94   am
    54    34    35    1
    55    85    88    1
    56    85    86    1
    57    90    89    2
    58    52    57   am
    59    52    53    2
    60    88    89    1
    61    92    86   am
    62    92    93    1
    63    89    91   am
    64    26    27    1
    65    28    29    2
    66    28    27    1
    67    57    58    1
    68   107   108    1
    69    86    87    2
    70   172   171    2
    71    94    93    1
    72    94    95    2
    73    32    31    2
    74    96    97    1
    75    96    93    1
    76   181   182    1
    77   181   183    1
    78    30    27    1
    79    30    31    1
    80   171   170    1
    81   108   109    1
    82    68    70    1
    83    68    69    1
    84    68    65    1
    85    31    33   am
    86    62    61    1
    87    64    65    1
    88    64    59   am
    89    58    61    1
    90    58    59    1
    91    61    63    1
    92    65    66    1
    93    66    67    2
    94    59    60    2
    95   170   173    1
    96   170   169    1
    97   109   111   am
    98   109   110    2
    99   173   174    1
   100   111   112    1
   101    13    12    1
   102   174   175    1
   103    24    23    1
   104    24    25    1
   105    18    17    2
   106     4     3    2
   107   175   176    1
   108     6     5    1
   109    15    16    1
   110    15     9   am
   111   112   113    1
   112    17    16    1
   113    17    19   am
   114   168   167   ar
   115   168   166   ar
   116   167   165   ar
   117    23    20    1
   118    20    19    1
   119    20    21    1
   120    25    19    1
   121     5     2    1
   122   115   113   am
   123   115   116    1
   124    12    11    1
   125    12    14    1
   126     3     2    1
   127     3     7   am
   128     8     9    1
   129     8     7    1
   130     8    11    1
   131   113   114    2
   132     9    10    2
   133   166   164   ar
   134   124   126    1
   135   124   123    1
   136   125   123    1
   137    22    21    2
   138   165   163   ar
   139     2     1    1
   140   116   117    1
   141   117   118    2
   142   134   132    1
   143   123   120    1
   144   133   132    1
   145   150   148   am
   146   164   163   ar
   147   163   162    1
   148   132   131    1
   149   157   155    1
   150   138   137    2
   151   148   147    1
   152   148   149    2
   153   120   119    1
   154   120   121    1
   155   144   147    1
   156   144   143    1
   157   144   145    1
   158   162   159    1
   159   135   136    1
   160   137   143   am
   161   137   136    1
   162   151   145   am
   163   151   152    1
   164   131   128    1
   165   155   156    1
   166   155   152    1
   167   121   122    2
   168   145   146    2
   169   136   139    1
   170   158   159    1
   171   158   153   am
   172   142   140    1
   173   152   153    1
   174   159   160    1
   175   128   127    1
   176   128   129    1
   177   153   154    2
   178   139   140    1
   179   139   141    1
   180   160   161    2
   181   129   130    2
