@<TRIPOS>MOLECULE
tmp/1a6vD00.pdb
 115 115 0 0 0
SMALL
GASTEIGER

@<TRIPOS>ATOM
      1  N         -2.6070   15.7870   36.4270 N.3    33  TRP33      -0.1241
      2  CA        -2.5060   14.5990   37.2830 C.3    33  TRP33       0.1605
      3  C         -3.2240   14.7010   38.6000 C.2    33  TRP33       0.2264
      4  O         -3.5470   15.8310   38.9800 O.2    33  TRP33      -0.2867
      5  CB        -0.9820   14.3400   37.2780 C.3    33  TRP33       0.0550
      6  CG        -0.5860   13.5300   36.0640 C.ar   33  TRP33       0.0003
      7  CD1       -1.2590   13.4430   34.8750 C.ar   33  TRP33       0.0946
      8  CD2        0.5320   12.6700   35.9050 C.ar   33  TRP33       0.0152
      9  NE1       -0.6270   12.6170   34.0350 N.ar   33  TRP33      -0.2442
     10  CE2        0.4790   12.1140   34.6150 C.ar   33  TRP33       0.0810
     11  CE3        1.6160   12.3540   36.6840 C.ar   33  TRP33       0.0012
     12  CZ2        1.3940   11.2190   34.0850 C.ar   33  TRP33       0.0191
     13  CZ3        2.5140   11.4570   36.1710 C.ar   33  TRP33       0.0001
     14  CH2        2.4470   10.8860   34.9010 C.ar   33  TRP33       0.0015
     15  N         -3.1290   13.2970   42.6540 N.3    35  HIS35      -0.1241
     16  CA        -2.4720   12.7460   43.8270 C.3    35  HIS35       0.1621
     17  C         -3.3160   12.7710   45.0880 C.2    35  HIS35       0.2264
     18  O         -4.2300   13.5890   45.2130 O.2    35  HIS35      -0.2867
     19  CB        -1.2330   13.5860   44.2310 C.3    35  HIS35       0.0745
     20  CG        -0.2300   13.5880   43.1270 C.ar   35  HIS35       0.0817
     21  ND1       -0.2350   14.4050   42.0170 N.ar   35  HIS35      -0.2268
     22  CD2        0.8440   12.8290   43.0250 C.ar   35  HIS35       0.1154
     23  CE1        0.8350   14.0790   41.2970 C.ar   35  HIS35       0.1986
     24  NE2        1.5130   13.1570   41.8950 N.ar   35  HIS35      -0.2212
     25  N          2.6080   11.2030   51.1570 N.3    47  TRP47      -0.1241
     26  CA         2.1280   10.9500   49.7950 C.3    47  TRP47       0.1605
     27  C          1.6610    9.5220   49.6210 C.2    47  TRP47       0.2264
     28  O          2.4830    8.6130   49.8260 O.2    47  TRP47      -0.2867
     29  CB         3.2470   11.2340   48.8200 C.3    47  TRP47       0.0550
     30  CG         2.9230   11.1340   47.3810 C.ar   47  TRP47       0.0003
     31  CD1        2.1790   12.0180   46.6590 C.ar   47  TRP47       0.0946
     32  CD2        3.3920   10.1290   46.4360 C.ar   47  TRP47       0.0152
     33  NE1        2.1560   11.5920   45.3710 N.ar   47  TRP47      -0.2442
     34  CE2        2.8840   10.4690   45.1790 C.ar   47  TRP47       0.0810
     35  CE3        4.1930    9.0070   46.5740 C.ar   47  TRP47       0.0012
     36  CZ2        3.1370    9.7470   44.0290 C.ar   47  TRP47       0.0191
     37  CZ3        4.4350    8.2780   45.4240 C.ar   47  TRP47       0.0001
     38  CH2        3.9420    8.6380   44.1750 C.ar   47  TRP47       0.0015
     39  N         -0.4410    8.6390   42.8810 N.3    50  ARG50      -0.1245
     40  CA        -0.8260    9.5010   41.7650 C.3    50  ARG50       0.1563
     41  C         -1.6700    8.7940   40.6860 C.2    50  ARG50       0.2260
     42  O         -1.6100    7.5550   40.6360 O.2    50  ARG50      -0.2867
     43  CB         0.4720    9.8870   41.0510 C.3    50  ARG50       0.0307
     44  CG         0.5020   10.7390   39.8280 C.3    50  ARG50       0.0489
     45  CD         0.4450    9.9620   38.5800 C.3    50  ARG50       0.2205
     46  NE         1.6040    9.1300   38.3510 N.pl3  50  ARG50      -0.0865
     47  CZ         1.6550    8.3510   37.2670 C.cat  50  ARG50       0.5346
     48  NH1        0.6990    8.2880   36.3400 N.pl3  50  ARG50       0.1354
     49  NH2        2.7110    7.5970   37.0500 N.pl3  50  ARG50       0.1354
     50  N          0.9330    5.8370   39.8570 N.3    59  LYS59      -0.1245
     51  CA         2.1800    5.5910   40.5750 C.3    59  LYS59       0.1561
     52  C          1.8970    5.7300   42.0640 C.2    59  LYS59       0.2260
     53  O          1.2530    6.7100   42.4740 O.2    59  LYS59      -0.2867
     54  CB         3.1540    6.5930   40.0230 C.3    59  LYS59       0.0271
     55  CG         4.5520    6.0790   39.8280 C.3    59  LYS59       0.0035
     56  CD         4.8890    5.7080   38.4040 C.3    59  LYS59       0.0206
     57  CE         5.6390    6.7570   37.6390 C.3    59  LYS59       0.1093
     58  NZ         6.6860    7.4510   38.3890 N.3    59  LYS59      -0.1314
     59  N         -1.8270   17.9450   39.9950 N.3    99  TYR99      -0.1241
     60  CA        -0.4710   18.1390   39.5100 C.3    99  TYR99       0.1605
     61  C         -0.3900   18.5000   38.0130 C.2    99  TYR99       0.2264
     62  O         -1.0910   17.9700   37.1590 O.2    99  TYR99      -0.2867
     63  CB         0.3080   16.8440   39.6470 C.3    99  TYR99       0.0534
     64  CG         1.7910   16.7670   39.4750 C.ar   99  TYR99      -0.0201
     65  CD1        2.6320   17.4250   40.3700 C.ar   99  TYR99      -0.0009
     66  CD2        2.3760   15.9860   38.4960 C.ar   99  TYR99      -0.0009
     67  CE1        3.9990   17.3800   40.2480 C.ar   99  TYR99       0.0417
     68  CE2        3.7470   15.9340   38.3520 C.ar   99  TYR99       0.0417
     69  CZ         4.5620   16.6110   39.2340 C.ar   99  TYR99       0.1957
     70  OH         5.9070   16.5210   39.0850 O.3    99  TYR99      -0.2866
     71  N          1.8450   17.8330   35.5680 N.3   101  TYR101     -0.1227
     72  CA         2.8420   16.9100   35.0430 C.3   101  TYR101      0.1736
     73  C          3.2510   17.2580   33.6090 C.2   101  TYR101      0.2595
     74  O          4.3860   17.0690   33.1650 O.2   101  TYR101     -0.2718
     75  CB         2.3440   15.4460   35.0220 C.3   101  TYR101      0.0548
     76  CG         3.3170   14.4770   34.3850 C.ar  101  TYR101     -0.0200
     77  CD1        4.4990   14.1600   35.0360 C.ar  101  TYR101     -0.0009
     78  CD2        3.1090   13.9770   33.1080 C.ar  101  TYR101     -0.0009
     79  CE1        5.3750   13.3080   34.4240 C.ar  101  TYR101      0.0417
     80  CE2        3.9890   13.0840   32.5180 C.ar  101  TYR101      0.0417
     81  CZ         5.1470   12.7560   33.1820 C.ar  101  TYR101      0.1957
     82  OH         6.0670   11.9100   32.6360 O.3   101  TYR101     -0.2866
     83  N          2.2140   17.7110   32.9510 N.am  102  TYR102     -0.1962
     84  CA         2.3360   18.1050   31.5370 C.3   102  TYR102      0.1771
     85  C          2.8420   19.5250   31.4450 C.2   102  TYR102      0.2620
     86  O          3.1530   19.9310   30.3170 O.2   102  TYR102     -0.2715
     87  CB         1.0270   17.7600   30.8320 C.3   102  TYR102      0.0574
     88  CG         0.8120   16.2680   30.7050 C.ar  102  TYR102     -0.0198
     89  CD1        1.7650   15.4640   30.0850 C.ar  102  TYR102     -0.0009
     90  CD2       -0.3490   15.6610   31.1440 C.ar  102  TYR102     -0.0009
     91  CE1        1.6080   14.0990   29.9270 C.ar  102  TYR102      0.0417
     92  CE2       -0.5380   14.2890   30.9770 C.ar  102  TYR102      0.0417
     93  CZ         0.4440   13.5140   30.3870 C.ar  102  TYR102      0.1957
     94  OH         0.2720   12.1560   30.2600 O.3   102  TYR102     -0.2866
     95  N          2.9350   20.1660   32.6080 N.am  103  GLY103     -0.1954
     96  CA         3.4170   21.5660   32.6090 C.3   103  GLY103      0.1869
     97  C          4.4640   21.6940   33.7050 C.2   103  GLY103      0.2309
     98  O          5.2600   20.7640   33.8370 O.2   103  GLY103     -0.2863
     99  N          4.9050   21.1450   36.7780 N.3   105  SER105     -0.1217
    100  CA         5.2300   20.1400   37.7850 C.3   105  SER105      0.1889
    101  C          4.9500   20.6270   39.2030 C.2   105  SER105      0.2288
    102  O          5.8020   20.5380   40.0970 O.2   105  SER105     -0.2866
    103  CB         6.6690   19.6810   37.5750 C.3   105  SER105      0.2089
    104  OG         6.9050   19.0390   36.3450 O.3   105  SER105     -0.2183
    105  N          1.9080   20.9280   42.4660 N.3   107  PHE107     -0.1241
    106  CA         0.7160   20.4510   43.1710 C.3   107  PHE107      0.1605
    107  C          0.0480   21.8080   43.4650 C.2   107  PHE107      0.2264
    108  O          0.2070   22.3670   44.5480 O.2   107  PHE107     -0.2867
    109  CB         0.9130   19.6710   44.4170 C.3   107  PHE107      0.0534
    110  CG         1.6480   18.3980   44.5270 C.ar  107  PHE107     -0.0203
    111  CD1        1.0610   17.1770   44.2730 C.ar  107  PHE107     -0.0042
    112  CD2        2.9650   18.4100   44.9480 C.ar  107  PHE107     -0.0042
    113  CE1        1.7490   15.9870   44.4630 C.ar  107  PHE107     -0.0003
    114  CE2        3.6690   17.2410   45.1230 C.ar  107  PHE107     -0.0003
    115  CZ         3.0680   15.9980   44.8630 C.ar  107  PHE107     -0.0000
@<TRIPOS>BOND
     1    91    89   ar
     2    91    93   ar
     3    89    88   ar
     4    94    93    1
     5    86    85    2
     6    93    92   ar
     7    88    87    1
     8    88    90   ar
     9    87    84    1
    10    92    90   ar
    11    85    84    1
    12    85    95   am
    13    84    83    1
    14    80    78   ar
    15    80    81   ar
    16    95    96    1
    17    96    97    1
    18    82    81    1
    19    83    73   am
    20    78    76   ar
    21    74    73    2
    22    81    79   ar
    23    73    72    1
    24    97    98    2
    25     9    10   ar
    26     9     7   ar
    27    12    10   ar
    28    12    14   ar
    29    76    75    1
    30    76    77   ar
    31    79    77   ar
    32    10     8   ar
    33     7     6   ar
    34    14    13   ar
    35    75    72    1
    36    72    71    1
    37     8     6   ar
    38     8    11   ar
    39     6     5    1
    40    13    11   ar
    41    48    47    1
    42   104   103    1
    43     1     2    1
    44    99   100    1
    45    49    47    1
    46    62    61    2
    47    47    46    2
    48     5     2    1
    49     2     3    1
    50   103   100    1
    51    57    58    1
    52    57    56    1
    53   100   101    1
    54    61    60    1
    55    46    45    1
    56    68    66   ar
    57    68    69   ar
    58    56    55    1
    59    66    64   ar
    60    45    44    1
    61     3     4    2
    62    70    69    1
    63   101   102    2
    64    69    67   ar
    65    64    63    1
    66    64    65   ar
    67    60    63    1
    68    60    59    1
    69    55    54    1
    70    44    43    1
    71    50    51    1
    72    54    51    1
    73    67    65   ar
    74    51    52    1
    75    42    41    2
    76    41    40    1
    77    43    40    1
    78    23    24   ar
    79    23    21   ar
    80    40    39    1
    81    24    22   ar
    82    21    20   ar
    83    52    53    2
    84   105   106    1
    85    15    16    1
    86    22    20   ar
    87    20    19    1
    88   106   107    1
    89   106   109    1
    90   107   108    2
    91    16    19    1
    92    16    17    1
    93    36    38   ar
    94    36    34   ar
    95    38    37   ar
    96   111   113   ar
    97   111   110   ar
    98   109   110    1
    99   113   115   ar
   100   110   112   ar
   101   115   114   ar
   102   112   114   ar
   103    17    18    2
   104    34    33   ar
   105    34    32   ar
   106    33    31   ar
   107    37    35   ar
   108    32    35   ar
   109    32    30   ar
   110    31    30   ar
   111    30    29    1
   112    29    26    1
   113    27    26    1
   114    27    28    2
   115    26    25    1
