@<TRIPOS>MOLECULE
tmp/1a7aA02.pdb
 158 149 0 0 0
SMALL
GASTEIGER

@<TRIPOS>ATOM
      1  N         20.8380   65.0310   61.5570 N.3    50  LEU50      -0.1231
      2  CA        21.0130   63.9980   60.5550 C.3    50  LEU50       0.1693
      3  C         21.3600   62.6700   61.2260 C.2    50  LEU50       0.2592
      4  O         22.1640   62.6230   62.1520 O.2    50  LEU50      -0.2718
      5  CB        22.1220   64.4460   59.5990 C.3    50  LEU50       0.0284
      6  CG        22.6060   63.5950   58.4240 C.3    50  LEU50       0.0019
      7  CD1       23.5350   64.4540   57.5790 C.3    50  LEU50       0.0001
      8  CD2       23.3220   62.3380   58.9120 C.3    50  LEU50       0.0001
      9  N         20.7310   61.6000   60.7580 N.am   51  HIS51      -0.1976
     10  CA        20.9580   60.2500   61.2800 C.3    51  HIS51       0.1656
     11  C         22.2970   60.1220   62.0080 C.2    51  HIS51       0.2291
     12  O         23.3530   60.2750   61.3920 O.2    51  HIS51      -0.2864
     13  CB        20.9350   59.2540   60.1220 C.3    51  HIS51       0.0771
     14  CG        19.6920   59.3220   59.2930 C.ar   51  HIS51       0.0820
     15  ND1       18.4450   58.9970   59.7870 N.ar   51  HIS51      -0.2267
     16  CD2       19.5030   59.6770   58.0000 C.ar   51  HIS51       0.1154
     17  CE1       17.5440   59.1440   58.8330 C.ar   51  HIS51       0.1986
     18  NE2       18.1600   59.5570   57.7390 N.ar   51  HIS51      -0.2212
     19  N         24.9010   58.2080   62.7230 N.3    52  THR52      -0.1218
     20  CA        25.5470   56.9400   62.3930 C.3    52  THR52       0.1862
     21  C         27.0630   57.0750   62.3540 C.2    52  THR52       0.2287
     22  O         27.6030   58.1860   62.3590 O.2    52  THR52      -0.2866
     23  CB        25.1390   56.4610   61.0130 C.3    52  THR52       0.1770
     24  OG1       25.7130   57.3470   60.0390 O.3    52  THR52      -0.2211
     25  CG2       23.6170   56.4590   60.8680 C.3    52  THR52       0.0375
     26  N         29.1800   56.8930   59.9850 N.3    54  GLU54      -0.1231
     27  CA        29.5700   57.8550   58.9590 C.3    54  GLU54       0.1699
     28  C         29.3820   59.2840   59.4670 C.2    54  GLU54       0.2592
     29  O         30.3210   60.0860   59.4450 O.2    54  GLU54      -0.2718
     30  CB        28.7440   57.6600   57.6930 C.3    54  GLU54       0.0402
     31  CG        28.8930   56.2960   57.0200 C.3    54  GLU54       0.1161
     32  CD        28.5100   55.1160   57.9080 C.2    54  GLU54       0.3649
     33  OE1       27.4300   55.1480   58.5460 O.co2  54  GLU54      -0.2457
     34  OE2       29.2840   54.1320   57.9420 O.co2  54  GLU54      -0.2457
     35  N         28.1750   59.5950   59.9350 N.am   55  THR55      -0.1953
     36  CA        27.8620   60.9320   60.4410 C.3    55  THR55       0.1897
     37  C         28.9000   61.3910   61.4670 C.2    55  THR55       0.2313
     38  O         29.2790   62.5720   61.5030 O.2    55  THR55      -0.2863
     39  CB        26.4770   60.9510   61.1080 C.3    55  THR55       0.1794
     40  OG1       25.5140   60.4200   60.1940 O.3    55  THR55      -0.2208
     41  CG2       26.0660   62.3710   61.4720 C.3    55  THR55       0.0378
     42  N         22.9100   55.0240   65.6120 N.3    80  GLN80      -0.1245
     43  CA        23.7770   53.8790   65.8730 C.3    80  GLN80       0.1566
     44  C         24.4140   54.2790   67.1970 C.2    80  GLN80       0.2260
     45  O         25.1980   55.2270   67.2540 O.2    80  GLN80      -0.2867
     46  CB        24.8010   53.7230   64.7460 C.3    80  GLN80       0.0367
     47  CG        24.1600   53.2210   63.4500 C.3    80  GLN80       0.0905
     48  CD        25.1030   53.1770   62.2480 C.2    80  GLN80       0.2608
     49  OE1       24.7110   52.7280   61.1700 O.2    80  GLN80      -0.2717
     50  NE2       26.3390   53.6510   62.4230 N.am   80  GLN80      -0.0878
     51  N         18.8980   67.1910   57.4200 N.3   125  ASP125     -0.1239
     52  CA        18.6150   66.0360   56.5690 C.3   125  ASP125      0.1674
     53  C         17.1330   65.7250   56.7710 C.2   125  ASP125      0.2266
     54  O         16.7730   65.0380   57.7260 O.2   125  ASP125     -0.2867
     55  CB        19.4310   64.8220   56.9990 C.3   125  ASP125      0.1410
     56  CG        19.2460   63.6270   56.0620 C.2   125  ASP125      0.3668
     57  OD1       18.0960   63.3560   55.6330 O.co2 125  ASP125     -0.2456
     58  OD2       20.2530   62.9400   55.7710 O.co2 125  ASP125     -0.2456
     59  N         20.3530   67.8640   52.9460 N.3   150  GLU150     -0.1231
     60  CA        20.9320   66.7260   52.2510 C.3   150  GLU150      0.1699
     61  C         20.0560   65.7280   51.5060 C.2   150  GLU150      0.2592
     62  O         20.5190   65.1180   50.5410 O.2   150  GLU150     -0.2718
     63  CB        21.8090   65.9250   53.2050 C.3   150  GLU150      0.0402
     64  CG        22.8910   65.1750   52.4610 C.3   150  GLU150      0.1161
     65  CD        23.3570   63.9510   53.1950 C.2   150  GLU150      0.3649
     66  OE1       23.6800   64.0710   54.3890 O.co2 150  GLU150     -0.2457
     67  OE2       23.4060   62.8670   52.5750 O.co2 150  GLU150     -0.2457
     68  N         18.8140   65.5240   51.9330 N.am  151  THR151     -0.1953
     69  CA        17.9820   64.5330   51.2510 C.3   151  THR151      0.1897
     70  C         16.8930   65.1310   50.3890 C.2   151  THR151      0.2313
     71  O         16.5090   66.2790   50.5650 O.2   151  THR151     -0.2863
     72  CB        17.3340   63.5550   52.2480 C.3   151  THR151      0.1794
     73  OG1       16.7950   62.4390   51.5350 O.3   151  THR151     -0.2208
     74  CG2       16.2150   64.2270   52.9980 C.3   151  THR151      0.0378
     75  N         25.8990   63.3190   44.7000 N.3   178  LYS178     -0.1245
     76  CA        25.1130   62.9430   45.8640 C.3   178  LYS178      0.1561
     77  C         23.8960   62.1500   45.3890 C.2   178  LYS178      0.2260
     78  O         23.8110   60.9370   45.6030 O.2   178  LYS178     -0.2867
     79  CB        24.6920   64.1930   46.6420 C.3   178  LYS178      0.0271
     80  CG        24.1200   63.9110   48.0290 C.3   178  LYS178      0.0035
     81  CD        22.7610   63.2400   47.9700 C.3   178  LYS178      0.0206
     82  CE        22.2140   62.9630   49.3600 C.3   178  LYS178      0.1093
     83  NZ        20.8320   62.4080   49.2730 N.3   178  LYS178     -0.1314
     84  N         24.8240   58.4590   46.2300 N.3   182  ASP182     -0.1225
     85  CA        24.2440   58.1500   47.5340 C.3   182  ASP182      0.1805
     86  C         22.8520   57.5410   47.3400 C.2   182  ASP182      0.2597
     87  O         22.6240   56.3840   47.6800 O.2   182  ASP182     -0.2718
     88  CB        24.1340   59.4410   48.3630 C.3   182  ASP182      0.1424
     89  CG        23.2450   59.2900   49.6090 C.2   182  ASP182      0.3668
     90  OD1       22.0880   58.8340   49.4850 O.co2 182  ASP182     -0.2456
     91  OD2       23.6880   59.6530   50.7200 O.co2 182  ASP182     -0.2456
     92  N         21.9280   58.3270   46.7840 N.am  183  ASN183     -0.1974
     93  CA        20.5570   57.8800   46.5610 C.3   183  ASN183      0.1688
     94  C         20.4340   56.5610   45.8070 C.2   183  ASN183      0.2292
     95  O         19.6780   55.6710   46.2180 O.2   183  ASN183     -0.2864
     96  CB        19.7630   58.9340   45.7910 C.3   183  ASN183      0.1181
     97  CG        19.6630   60.2560   46.5250 C.2   183  ASN183      0.2629
     98  OD1       18.7340   61.0440   46.2790 O.2   183  ASN183     -0.2716
     99  ND2       20.6170   60.5230   47.4110 N.am  183  ASN183     -0.0877
    100  N         12.1510   59.2130   53.2540 N.3   289  HIS289     -0.1241
    101  CA        12.5680   59.8540   54.4940 C.3   289  HIS289      0.1621
    102  C         11.5380   59.7960   55.6140 C.2   289  HIS289      0.2264
    103  O         11.8270   59.3070   56.7030 O.2   289  HIS289     -0.2867
    104  CB        12.9820   61.3050   54.2460 C.3   289  HIS289      0.0745
    105  CG        13.4310   62.0090   55.4860 C.ar  289  HIS289      0.0817
    106  ND1       14.4880   61.5640   56.2500 N.ar  289  HIS289     -0.2268
    107  CD2       12.9340   63.0910   56.1290 C.ar  289  HIS289      0.1154
    108  CE1       14.6220   62.3410   57.3120 C.ar  289  HIS289      0.1986
    109  NE2       13.6910   63.2750   57.2620 N.ar  289  HIS289     -0.2212
    110  N         12.1240   54.5020   57.3200 N.3   332  LEU332     -0.1245
    111  CA        13.2100   54.0930   56.4140 C.3   332  LEU332      0.1561
    112  C         14.0000   52.8910   56.9150 C.2   332  LEU332      0.2260
    113  O         14.8310   52.9720   57.8310 O.2   332  LEU332     -0.2867
    114  CB        14.1300   55.2780   56.0850 C.3   332  LEU332      0.0270
    115  CG        14.9600   55.9920   57.1350 C.3   332  LEU332      0.0019
    116  CD1       15.4890   57.2690   56.4920 C.3   332  LEU332      0.0001
    117  CD2       14.1150   56.3410   58.3520 C.3   332  LEU332      0.0001
    118  N         16.4920   50.8850   55.6450 N.3   334  ASN334     -0.1225
    119  CA        17.9520   50.7240   55.6000 C.3   334  ASN334      0.1785
    120  C         18.6390   51.1720   56.8910 C.2   334  ASN334      0.2597
    121  O         19.5380   50.4900   57.4020 O.2   334  ASN334     -0.2718
    122  CB        18.5640   51.4680   54.4050 C.3   334  ASN334      0.1169
    123  CG        18.2380   52.9420   54.4020 C.2   334  ASN334      0.2627
    124  OD1       18.8460   53.7200   53.6690 O.2   334  ASN334     -0.2716
    125  ND2       17.2640   53.3330   55.2080 N.am  334  ASN334     -0.0877
    126  N         18.2100   52.3090   57.4220 N.am  335  LEU335     -0.1980
    127  CA        18.7720   52.8270   58.6650 C.3   335  LEU335      0.1596
    128  C         18.1010   52.1780   59.8770 C.2   335  LEU335      0.2287
    129  O         18.7660   51.8270   60.8600 O.2   335  LEU335     -0.2864
    130  CB        18.5790   54.3420   58.7250 C.3   335  LEU335      0.0297
    131  CG        19.4000   55.1140   57.6940 C.3   335  LEU335      0.0022
    132  CD1       18.8490   56.5190   57.5150 C.3   335  LEU335      0.0001
    133  CD2       20.8600   55.1280   58.1360 C.3   335  LEU335      0.0001
    134  N         22.3110   51.5260   57.3570 N.3   339  GLY339     -0.1210
    135  CA        22.2030   52.5610   56.3460 C.3   339  GLY339      0.1956
    136  C         23.1900   52.3210   55.2260 C.2   339  GLY339      0.2611
    137  O         23.5810   51.1790   54.9910 O.2   339  GLY339     -0.2717
    138  N         23.5920   53.3940   54.5480 N.am  340  HIS340     -0.1975
    139  CA        24.5320   53.3090   53.4350 C.3   340  HIS340      0.1656
    140  C         25.9520   53.0110   53.8700 C.2   340  HIS340      0.2291
    141  O         26.3700   53.3620   54.9730 O.2   340  HIS340     -0.2864
    142  CB        24.5380   54.6110   52.6410 C.3   340  HIS340      0.0771
    143  CG        23.2710   54.8740   51.8980 C.ar  340  HIS340      0.0820
    144  ND1       22.9690   56.1060   51.3590 N.ar  340  HIS340     -0.2267
    145  CD2       22.2330   54.0600   51.5880 C.ar  340  HIS340      0.1154
    146  CE1       21.8000   56.0430   50.7500 C.ar  340  HIS340      0.1986
    147  NE2       21.3320   54.8130   50.8740 N.ar  340  HIS340     -0.2212
    148  N         28.5800   63.5510   52.4000 N.3   348  PHE348     -0.1241
    149  CA        29.1620   64.4340   53.3920 C.3   348  PHE348      0.1605
    150  C         30.2360   65.4180   52.9210 C.2   348  PHE348      0.2264
    151  O         30.3510   66.5250   53.4690 O.2   348  PHE348     -0.2867
    152  CB        29.6510   63.6170   54.5880 C.3   348  PHE348      0.0534
    153  CG        28.5330   62.9570   55.3480 C.ar  348  PHE348     -0.0203
    154  CD1       27.2540   63.5260   55.3570 C.ar  348  PHE348     -0.0042
    155  CD2       28.7520   61.8020   56.0780 C.ar  348  PHE348     -0.0042
    156  CE1       26.2130   62.9550   56.0850 C.ar  348  PHE348     -0.0003
    157  CE2       27.7090   61.2190   56.8170 C.ar  348  PHE348     -0.0003
    158  CZ        26.4320   61.8040   56.8160 C.ar  348  PHE348     -0.0000
@<TRIPOS>BOND
     1    75    76    1
     2    77    78    2
     3    77    76    1
     4    96    97    1
     5    96    93    1
     6    94    95    2
     7    94    93    1
     8    76    79    1
     9    84    85    1
    10    98    97    2
    11    97    99   am
    12    93    92    1
    13    79    80    1
    14    92    86   am
    15    86    85    1
    16    86    87    2
    17    85    88    1
    18    81    80    1
    19    81    82    1
    20    88    89    1
    21    83    82    1
    22    90    89   ar
    23    89    91   ar
    24    70    71    2
    25    70    69    1
    26    62    61    2
    27   146   147   ar
    28   146   144   ar
    29   147   145   ar
    30    69    68    1
    31    69    72    1
    32   144   143   ar
    33    61    68   am
    34    61    60    1
    35    73    72    1
    36   145   143   ar
    37   143   142    1
    38    72    74    1
    39    60    59    1
    40    60    63    1
    41   148   149    1
    42    64    65    1
    43    64    63    1
    44    67    65   ar
    45   142   139    1
    46   150   149    1
    47   150   151    2
    48    65    66   ar
    49   100   101    1
    50   149   152    1
    51   139   140    1
    52   139   138    1
    53   124   123    2
    54   140   141    2
    55   104   101    1
    56   104   105    1
    57   123   122    1
    58   123   125   am
    59   122   119    1
    60   101   102    1
    61   138   136   am
    62   152   153    1
    63   137   136    2
    64   136   135    1
    65   153   154   ar
    66   153   155   ar
    67   154   156   ar
    68   105   107   ar
    69   105   106   ar
    70   119   118    1
    71   119   120    1
    72   102   103    2
    73    57    56   ar
    74    58    56   ar
    75    56    55    1
    76   155   157   ar
    77   114   111    1
    78   114   115    1
    79   156   158   ar
    80   107   109   ar
    81   106   108   ar
    82   135   134    1
    83   111   112    1
    84   111   110    1
    85   116   115    1
    86    52    53    1
    87    52    55    1
    88    52    51    1
    89    53    54    2
    90   158   157   ar
    91   120   121    2
    92   120   126   am
    93   112   113    2
    94    31    30    1
    95    31    32    1
    96   115   117    1
    97   109   108   ar
    98   126   127    1
    99   132   131    1
   100     7     6    1
   101    30    27    1
   102   131   133    1
   103   131   130    1
   104    18    16   ar
   105    18    17   ar
   106    32    34   ar
   107    32    33   ar
   108    16    14   ar
   109     6     8    1
   110     6     5    1
   111   127   130    1
   112   127   128    1
   113    17    15   ar
   114    27    28    1
   115    27    26    1
   116    14    15   ar
   117    14    13    1
   118    29    28    2
   119    28    35   am
   120     5     2    1
   121   128   129    2
   122    35    36    1
   123    24    23    1
   124    13    10    1
   125    40    39    1
   126    36    39    1
   127    36    37    1
   128     2     3    1
   129     2     1    1
   130     9     3   am
   131     9    10    1
   132    25    23    1
   133    23    20    1
   134    39    41    1
   135    49    48    2
   136     3     4    2
   137    10    11    1
   138    12    11    2
   139    37    38    2
   140    48    50   am
   141    48    47    1
   142    21    22    2
   143    21    20    1
   144    20    19    1
   145    47    46    1
   146    46    43    1
   147    42    43    1
   148    43    44    1
   149    44    45    2
