@<TRIPOS>MOLECULE
tmp/1a7cA01.pdb
 211 205 0 0 0
SMALL
GASTEIGER

@<TRIPOS>ATOM
      1  N         12.7490   21.6340   12.1410 N.3    41  VAL41      -0.1231
      2  CA        13.7680   21.9100   11.1320 C.3    41  VAL41       0.1692
      3  C         13.2720   21.5350    9.7270 C.2    41  VAL41       0.2591
      4  O         13.4870   22.2840    8.7670 O.2    41  VAL41      -0.2718
      5  CB        15.1010   21.1750   11.4690 C.3    41  VAL41       0.0266
      6  CG1       16.0940   21.3070   10.3260 C.3    41  VAL41       0.0020
      7  CG2       15.7060   21.7580   12.7390 C.3    41  VAL41       0.0020
      8  N         12.5950   20.3940    9.6060 N.am   42  LEU42      -0.1980
      9  CA        12.0800   19.9660    8.3070 C.3    42  LEU42       0.1596
     10  C         10.9140   20.8550    7.8490 C.2    42  LEU42       0.2287
     11  O         10.6910   21.0280    6.6510 O.2    42  LEU42      -0.2864
     12  CB        11.6820   18.4870    8.3360 C.3    42  LEU42       0.0297
     13  CG        12.7530   17.4330    8.0090 C.3    42  LEU42       0.0022
     14  CD1       13.0020   17.3700    6.5090 C.3    42  LEU42       0.0001
     15  CD2       14.0450   17.7230    8.7490 C.3    42  LEU42       0.0001
     16  N         12.4770   23.6970    6.2680 N.3    45  LEU45      -0.1245
     17  CA        13.0420   23.2180    5.0160 C.3    45  LEU45       0.1561
     18  C         11.9690   23.2100    3.9230 C.2    45  LEU45       0.2260
     19  O         12.2740   23.4230    2.7530 O.2    45  LEU45      -0.2867
     20  CB        13.6310   21.8270    5.2260 C.3    45  LEU45       0.0270
     21  CG        14.9290   21.4330    4.5190 C.3    45  LEU45       0.0019
     22  CD1       15.8080   22.6430    4.2360 C.3    45  LEU45       0.0001
     23  CD2       15.6660   20.4370    5.4030 C.3    45  LEU45       0.0001
     24  N         27.3830   23.4170   18.8650 N.3   150  LEU150     -0.1231
     25  CA        26.5580   22.6970   17.8960 C.3   150  LEU150      0.1693
     26  C         27.3130   22.3380   16.6130 C.2   150  LEU150      0.2591
     27  O         27.4010   21.1640   16.2400 O.2   150  LEU150     -0.2718
     28  CB        25.2870   23.4950   17.5640 C.3   150  LEU150      0.0284
     29  CG        24.3370   22.8420   16.5490 C.3   150  LEU150      0.0019
     30  CD1       23.7720   21.5410   17.1060 C.3   150  LEU150      0.0001
     31  CD2       23.2200   23.7960   16.1730 C.3   150  LEU150      0.0001
     32  N         27.8650   23.3560   15.9570 N.am  151  LEU151     -0.1980
     33  CA        28.6070   23.1800   14.7180 C.3   151  LEU151      0.1596
     34  C         30.1080   23.0760   14.9730 C.2   151  LEU151      0.2287
     35  O         30.7400   24.0390   15.4080 O.2   151  LEU151     -0.2864
     36  CB        28.3160   24.3520   13.7790 C.3   151  LEU151      0.0297
     37  CG        26.8560   24.4960   13.3410 C.3   151  LEU151      0.0022
     38  CD1       26.6780   25.7400   12.4840 C.3   151  LEU151      0.0001
     39  CD2       26.4240   23.2500   12.5810 C.3   151  LEU151      0.0001
     40  N         32.1060   21.9010    9.8380 N.3   155  ALA155     -0.1231
     41  CA        30.6700   21.7160    9.6160 C.3   155  ALA155      0.1694
     42  C         30.1830   22.7950    8.6500 C.2   155  ALA155      0.2592
     43  O         29.2480   22.5830    7.8750 O.2   155  ALA155     -0.2718
     44  CB        29.9180   21.8020   10.9290 C.3   155  ALA155      0.0304
     45  N         30.8000   23.9680    8.7450 N.am  156  VAL156     -0.1966
     46  CA        30.4950   25.0840    7.8650 C.3   156  VAL156      0.1727
     47  C         31.8020   25.5600    7.2420 C.2   156  VAL156      0.2616
     48  O         32.8810   25.3620    7.8030 O.2   156  VAL156     -0.2715
     49  CB        29.8130   26.2790    8.5920 C.3   156  VAL156      0.0290
     50  CG1       28.4210   25.8920    9.0530 C.3   156  VAL156      0.0023
     51  CG2       30.6620   26.7670    9.7530 C.3   156  VAL156      0.0023
     52  N         31.7020   26.1220    6.0440 N.am  157  ASP157     -0.1971
     53  CA        32.8610   26.6400    5.3350 C.3   157  ASP157      0.1709
     54  C         32.4140   27.7760    4.4410 C.2   157  ASP157      0.2293
     55  O         31.2630   28.2110    4.5100 O.2   157  ASP157     -0.2864
     56  CB        33.5790   25.5440    4.5340 C.3   157  ASP157      0.1436
     57  CG        32.6420   24.7330    3.6570 C.2   157  ASP157      0.3671
     58  OD1       31.8860   25.3300    2.8660 O.co2 157  ASP157     -0.2456
     59  OD2       32.6770   23.4900    3.7500 O.co2 157  ASP157     -0.2456
     60  N         31.6500   27.7940    1.4110 N.3   159  LEU159     -0.1231
     61  CA        30.6220   27.4340    0.4410 C.3   159  LEU159      0.1693
     62  C         29.2400   27.3030    1.0780 C.2   159  LEU159      0.2593
     63  O         28.2430   27.1270    0.3770 O.2   159  LEU159     -0.2718
     64  CB        30.9960   26.1520   -0.3190 C.3   159  LEU159      0.0284
     65  CG        32.2420   26.2300   -1.2150 C.3   159  LEU159      0.0019
     66  CD1       32.4760   24.9030   -1.8930 C.3   159  LEU159      0.0001
     67  CD2       32.0720   27.3220   -2.2490 C.3   159  LEU159      0.0001
     68  N         29.1780   27.3980    2.4030 N.am  160  THR160     -0.1939
     69  CA        27.9050   27.3150    3.1130 C.3   160  THR160      0.2028
     70  C         27.0740   28.5460    2.7730 C.2   160  THR160      0.2642
     71  O         27.6080   29.6470    2.6540 O.2   160  THR160     -0.2714
     72  CB        28.1180   27.2490    4.6300 C.3   160  THR160      0.1808
     73  OG1       28.8630   26.0700    4.9500 O.3   160  THR160     -0.2208
     74  CG2       26.7800   27.2230    5.3620 C.3   160  THR160      0.0379
     75  N         25.7690   28.3560    2.5960 N.am  161  ARG161     -0.1963
     76  CA        24.8870   29.4640    2.2510 C.3   161  ARG161      0.1729
     77  C         23.6780   29.5760    3.1590 C.2   161  ARG161      0.2616
     78  O         23.0700   30.6410    3.2540 O.2   161  ARG161     -0.2715
     79  CB        24.3860   29.3040    0.8160 C.3   161  ARG161      0.0348
     80  CG        25.4670   29.3860   -0.2320 C.3   161  ARG161      0.0492
     81  CD        25.9290   30.8160   -0.4300 C.3   161  ARG161      0.2205
     82  NE        27.0600   30.8710   -1.3460 N.pl3 161  ARG161     -0.0865
     83  CZ        28.3330   30.7990   -0.9660 C.cat 161  ARG161      0.5346
     84  NH1       28.6480   30.6800    0.3220 N.pl3 161  ARG161      0.1354
     85  NH2       29.2930   30.8080   -1.8820 N.pl3 161  ARG161      0.1354
     86  N         23.3400   28.4830    3.8340 N.am  162  LEU162     -0.1963
     87  CA        22.1640   28.4580    4.6910 C.3   162  LEU162      0.1728
     88  C         22.2830   27.4810    5.8570 C.2   162  LEU162      0.2616
     89  O         22.7240   26.3460    5.6780 O.2   162  LEU162     -0.2715
     90  CB        20.9560   28.0610    3.8320 C.3   162  LEU162      0.0311
     91  CG        19.6190   27.8090    4.5200 C.3   162  LEU162      0.0022
     92  CD1       19.0360   29.1350    4.9380 C.3   162  LEU162      0.0001
     93  CD2       18.6790   27.0770    3.5860 C.3   162  LEU162      0.0001
     94  N         21.8970   27.9300    7.0510 N.am  163  VAL163     -0.1963
     95  CA        21.8980   27.0680    8.2400 C.3   163  VAL163      0.1727
     96  C         20.5490   27.2110    8.9510 C.2   163  VAL163      0.2616
     97  O         20.1130   28.3190    9.2630 O.2   163  VAL163     -0.2715
     98  CB        23.0350   27.4040    9.2330 C.3   163  VAL163      0.0290
     99  CG1       22.9690   26.4600   10.4310 C.3   163  VAL163      0.0023
    100  CG2       24.3950   27.2690    8.5550 C.3   163  VAL163      0.0023
    101  N         19.8630   26.0890    9.1330 N.am  164  LEU164     -0.1963
    102  CA        18.5610   26.0760    9.7970 C.3   164  LEU164      0.1728
    103  C         18.7230   25.4020   11.1480 C.2   164  LEU164      0.2616
    104  O         19.3050   24.3200   11.2350 O.2   164  LEU164     -0.2715
    105  CB        17.5320   25.2880    8.9700 C.3   164  LEU164      0.0311
    106  CG        17.2230   25.7110    7.5320 C.3   164  LEU164      0.0022
    107  CD1       16.1780   24.7900    6.9580 C.3   164  LEU164      0.0001
    108  CD2       16.7090   27.1300    7.4890 C.3   164  LEU164      0.0001
    109  N         18.2300   26.0430   12.2040 N.am  165  VAL165     -0.1977
    110  CA        18.3290   25.4540   13.5350 C.3   165  VAL165      0.1596
    111  C         17.0970   25.6570   14.4010 C.2   165  VAL165      0.2287
    112  O         16.3800   26.6550   14.2790 O.2   165  VAL165     -0.2864
    113  CB        19.5450   26.0040   14.3580 C.3   165  VAL165      0.0276
    114  CG1       20.8650   25.5790   13.7420 C.3   165  VAL165      0.0022
    115  CG2       19.4720   27.5030   14.4590 C.3   165  VAL165      0.0022
    116  N         21.4970   12.7500   10.5140 N.3   285  LEU285     -0.1245
    117  CA        20.1680   12.5050    9.9850 C.3   285  LEU285      0.1561
    118  C         20.0790   12.1780    8.4980 C.2   285  LEU285      0.2260
    119  O         18.9970   11.8610    8.0140 O.2   285  LEU285     -0.2867
    120  CB        19.2740   13.7080   10.3000 C.3   285  LEU285      0.0270
    121  CG        19.0510   14.0360   11.7790 C.3   285  LEU285      0.0019
    122  CD1       18.3750   15.3840   11.9020 C.3   285  LEU285      0.0001
    123  CD2       18.2180   12.9490   12.4390 C.3   285  LEU285      0.0001
    124  N         23.5630   17.6840   -5.0920 N.3   300  GLN300     -0.1245
    125  CA        23.9860   18.9120   -5.7490 C.3   300  GLN300      0.1566
    126  C         23.2020   19.2340   -7.0310 C.2   300  GLN300      0.2260
    127  O         22.7480   20.3660   -7.2220 O.2   300  GLN300     -0.2867
    128  CB        25.4940   18.8100   -6.0420 C.3   300  GLN300      0.0367
    129  CG        26.0890   19.9130   -6.9070 C.3   300  GLN300      0.0905
    130  CD        26.1750   21.2560   -6.2040 C.2   300  GLN300      0.2608
    131  OE1       25.2020   21.7310   -5.6040 O.2   300  GLN300     -0.2717
    132  NE2       27.3470   21.8900   -6.2900 N.am  300  GLN300     -0.0878
    133  N         16.0410   24.5490   -4.3110 N.3   305  PHE305     -0.1241
    134  CA        15.8900   25.5450   -3.2410 C.3   305  PHE305      0.1605
    135  C         15.4180   26.8860   -3.8010 C.2   305  PHE305      0.2264
    136  O         15.6830   27.9420   -3.2210 O.2   305  PHE305     -0.2867
    137  CB        17.2160   25.7500   -2.4900 C.3   305  PHE305      0.0534
    138  CG        17.4850   24.7160   -1.4330 C.ar  305  PHE305     -0.0203
    139  CD1       17.9570   23.4520   -1.7730 C.ar  305  PHE305     -0.0042
    140  CD2       17.2580   25.0050   -0.0890 C.ar  305  PHE305     -0.0042
    141  CE1       18.1960   22.4870   -0.7910 C.ar  305  PHE305     -0.0003
    142  CE2       17.4940   24.0460    0.9030 C.ar  305  PHE305     -0.0003
    143  CZ        17.9630   22.7880    0.5520 C.ar  305  PHE305     -0.0000
    144  N         21.7220   30.8170   -6.9670 N.3   312  GLU312     -0.1231
    145  CA        22.6120   29.6750   -7.1390 C.3   312  GLU312      0.1684
    146  C         22.0280   28.3740   -6.6110 C.2   312  GLU312      0.2434
    147  O         21.1490   28.3860   -5.7470 O.2   312  GLU312     -0.2733
    148  CB        23.9630   29.9600   -6.4660 C.3   312  GLU312      0.0402
    149  CG        23.8800   30.3750   -5.0060 C.3   312  GLU312      0.1161
    150  CD        25.2170   30.8390   -4.4580 C.2   312  GLU312      0.3649
    151  OE1       26.0260   29.9830   -4.0510 O.co2 312  GLU312     -0.2457
    152  OE2       25.4630   32.0640   -4.4360 O.co2 312  GLU312     -0.2457
    153  N         22.4700   27.2330   -7.1700 N.am  313  PRO313     -0.2718
    154  CA        21.9740   25.9290   -6.7280 C.3   313  PRO313      0.1535
    155  C         22.5400   25.5550   -5.3610 C.2   313  PRO313      0.2598
    156  O         23.7360   25.7090   -5.1040 O.2   313  PRO313     -0.2715
    157  CB        22.4650   24.9890   -7.8280 C.3   313  PRO313      0.0310
    158  CG        23.7320   25.6160   -8.2660 C.3   313  PRO313      0.0237
    159  CD        23.3690   27.0820   -8.3270 C.3   313  PRO313      0.0939
    160  N         21.6580   25.1090   -4.4740 N.am  314  LEU314     -0.1964
    161  CA        22.0450   24.7110   -3.1250 C.3   314  LEU314      0.1728
    162  C         21.6640   23.2670   -2.8960 C.2   314  LEU314      0.2616
    163  O         20.8730   22.7000   -3.6460 O.2   314  LEU314     -0.2715
    164  CB        21.3220   25.5660   -2.0840 C.3   314  LEU314      0.0311
    165  CG        21.4740   27.0800   -2.1520 C.3   314  LEU314      0.0022
    166  CD1       20.6800   27.7040   -1.0220 C.3   314  LEU314      0.0001
    167  CD2       22.9410   27.4580   -2.0570 C.3   314  LEU314      0.0001
    168  N         22.2490   22.6680   -1.8680 N.am  315  HIS315     -0.1959
    169  CA        21.9360   21.3000   -1.5060 C.3   315  HIS315      0.1787
    170  C         22.3130   21.1440   -0.0460 C.2   315  HIS315      0.2620
    171  O         23.1750   21.8700    0.4550 O.2   315  HIS315     -0.2715
    172  CB        22.6940   20.2980   -2.3840 C.3   315  HIS315      0.0785
    173  CG        24.1710   20.2680   -2.1370 C.ar  315  HIS315      0.0821
    174  ND1       24.7860   19.2530   -1.4370 N.ar  315  HIS315     -0.2267
    175  CD2       25.1540   21.1290   -2.4930 C.ar  315  HIS315      0.1154
    176  CE1       26.0820   19.4890   -1.3710 C.ar  315  HIS315      0.1986
    177  NE2       26.3320   20.6210   -2.0040 N.ar  315  HIS315     -0.2212
    178  N         21.6160   20.2520    0.6500 N.am  316  VAL316     -0.1963
    179  CA        21.8870   19.9940    2.0580 C.3   316  VAL316      0.1727
    180  C         23.2010   19.2260    2.1690 C.2   316  VAL316      0.2616
    181  O         23.3360   18.1140    1.6450 O.2   316  VAL316     -0.2715
    182  CB        20.7340   19.1930    2.7050 C.3   316  VAL316      0.0290
    183  CG1       21.0850   18.8000    4.1280 C.3   316  VAL316      0.0023
    184  CG2       19.4610   20.0220    2.6940 C.3   316  VAL316      0.0023
    185  N         24.1820   19.8560    2.8070 N.am  317  ALA317     -0.1963
    186  CA        25.4970   19.2630    2.9950 C.3   317  ALA317      0.1728
    187  C         25.5430   18.4180    4.2550 C.2   317  ALA317      0.2616
    188  O         26.1280   17.3350    4.2710 O.2   317  ALA317     -0.2715
    189  CB        26.5410   20.3580    3.0740 C.3   317  ALA317      0.0334
    190  N         24.8660   18.8860    5.2930 N.am  318  GLN318     -0.1963
    191  CA        24.8680   18.1920    6.5700 C.3   318  GLN318      0.1733
    192  C         23.5400   18.3630    7.3020 C.2   318  GLN318      0.2616
    193  O         22.9460   19.4390    7.2840 O.2   318  GLN318     -0.2715
    194  CB        26.0000   18.7760    7.4130 C.3   318  GLN318      0.0408
    195  CG        26.4550   17.9350    8.5740 C.3   318  GLN318      0.0908
    196  CD        27.5860   18.6070    9.3340 C.2   318  GLN318      0.2608
    197  OE1       28.7520   18.5120    8.9440 O.2   318  GLN318     -0.2717
    198  NE2       27.2390   19.3190   10.4190 N.am  318  GLN318     -0.0878
    199  N         23.0710   17.2930    7.9320 N.am  319  ALA319     -0.1963
    200  CA        21.8260   17.3250    8.6930 C.3   319  ALA319      0.1728
    201  C         22.0410   16.4900    9.9450 C.2   319  ALA319      0.2616
    202  O         22.1260   15.2620    9.8720 O.2   319  ALA319     -0.2715
    203  CB        20.6780   16.7550    7.8720 C.3   319  ALA319      0.0334
    204  N         22.1680   17.1520   11.0890 N.am  320  LEU320     -0.1977
    205  CA        22.3850   16.4280   12.3300 C.3   320  LEU320      0.1596
    206  C         21.6960   17.0670   13.5170 C.2   320  LEU320      0.2287
    207  O         21.2610   18.2170   13.4640 O.2   320  LEU320     -0.2864
    208  CB        23.8840   16.2570   12.6100 C.3   320  LEU320      0.0297
    209  CG        24.7370   17.3640   13.2310 C.3   320  LEU320      0.0022
    210  CD1       26.1870   16.8930   13.2110 C.3   320  LEU320      0.0001
    211  CD2       24.6000   18.6740   12.4720 C.3   320  LEU320      0.0001
@<TRIPOS>BOND
     1   159   158    1
     2   159   153    1
     3   158   157    1
     4   157   154    1
     5   127   126    2
     6   153   154    1
     7   153   146   am
     8   145   144    1
     9   145   146    1
    10   145   148    1
    11   126   125    1
    12   129   130    1
    13   129   128    1
    14   154   155    1
    15   146   147    2
    16   148   149    1
    17   132   130   am
    18   130   131    2
    19   128   125    1
    20   125   124    1
    21   155   156    2
    22   155   160   am
    23   149   150    1
    24   160   161    1
    25   150   152   ar
    26   150   151   ar
    27   133   134    1
    28   135   134    1
    29   135   136    2
    30   163   162    2
    31   134   137    1
    32   161   162    1
    33   161   164    1
    34   162   168   am
    35   175   173   ar
    36   175   177   ar
    37   137   138    1
    38   172   173    1
    39   172   169    1
    40    67    65    1
    41   165   164    1
    42   165   167    1
    43   165   166    1
    44   173   174   ar
    45   177   176   ar
    46    66    65    1
    47    85    83    1
    48   168   169    1
    49   139   138   ar
    50   139   141   ar
    51   169   170    1
    52   174   176   ar
    53   138   140   ar
    54    82    83    2
    55    82    81    1
    56    65    64    1
    57    83    84    1
    58   141   143   ar
    59    81    80    1
    60    64    61    1
    61    80    79    1
    62   140   142   ar
    63   170   171    2
    64   170   178   am
    65    63    62    2
    66    61    62    1
    67    61    60    1
    68   143   142   ar
    69   178   179    1
    70    79    76    1
    71    62    68   am
    72   181   180    2
    73   179   180    1
    74   179   182    1
    75   180   185   am
    76    76    75    1
    77    76    77    1
    78    68    69    1
    79    75    70   am
    80    71    70    2
    81   184   182    1
    82   182   183    1
    83    19    18    2
    84    70    69    1
    85   185   186    1
    86    58    57   ar
    87   186   189    1
    88   186   187    1
    89    69    72    1
    90    77    78    2
    91    77    86   am
    92    93    91    1
    93    57    59   ar
    94    57    56    1
    95    90    91    1
    96    90    87    1
    97    86    87    1
    98    18    17    1
    99    22    21    1
   100   187   188    2
   101   187   190   am
   102    54    55    2
   103    54    53    1
   104    21    20    1
   105    21    23    1
   106    91    92    1
   107    56    53    1
   108    72    73    1
   109    72    74    1
   110    87    88    1
   111    17    20    1
   112    17    16    1
   113   190   191    1
   114    53    52    1
   115    89    88    2
   116    88    94   am
   117    52    47   am
   118    14    13    1
   119   191   192    1
   120   191   194    1
   121    11    10    2
   122   107   106    1
   123    94    95    1
   124    47    48    2
   125    47    46    1
   126   193   192    2
   127   192   199   am
   128   194   195    1
   129   108   106    1
   130   106   105    1
   131    10     9    1
   132    46    49    1
   133    46    45    1
   134   203   200    1
   135    43    42    2
   136   199   200    1
   137    13    12    1
   138    13    15    1
   139   119   118    2
   140    95    96    1
   141    95    98    1
   142     9    12    1
   143     9     8    1
   144   118   117    1
   145   100    98    1
   146   195   196    1
   147    49    50    1
   148    49    51    1
   149    42    45   am
   150    42    41    1
   151   200   201    1
   152     4     3    2
   153   197   196    2
   154    96   101   am
   155    96    97    2
   156   105   102    1
   157   101   102    1
   158    98    99    1
   159   196   198   am
   160     8     3   am
   161    41    40    1
   162    41    44    1
   163     3     2    1
   164   102   103    1
   165   202   201    2
   166   201   204   am
   167   117   120    1
   168   117   116    1
   169   120   121    1
   170     6     5    1
   171   204   205    1
   172     2     5    1
   173     2     1    1
   174   103   104    2
   175   103   109   am
   176     5     7    1
   177   121   122    1
   178   121   123    1
   179   109   110    1
   180   205   208    1
   181   205   206    1
   182   211   209    1
   183    38    37    1
   184    39    37    1
   185   208   209    1
   186   210   209    1
   187    37    36    1
   188   207   206    2
   189   110   113    1
   190   110   111    1
   191   114   113    1
   192    36    33    1
   193   112   111    2
   194   113   115    1
   195    33    34    1
   196    33    32    1
   197    34    35    2
   198    32    26   am
   199    31    29    1
   200    27    26    2
   201    29    30    1
   202    29    28    1
   203    26    25    1
   204    28    25    1
   205    25    24    1
