@<TRIPOS>MOLECULE
tmp/1a7lC00.pdb
 191 187 0 0 0
SMALL
GASTEIGER

@<TRIPOS>ATOM
      1  N         17.1260   37.6560   61.0450 N.3     9  ASN9       -0.1240
      2  CA        16.1740   38.6990   61.3960 C.3     9  ASN9        0.1653
      3  C         16.3200   39.1180   62.8540 C.2     9  ASN9        0.2266
      4  O         16.6990   38.3140   63.7080 O.2     9  ASN9       -0.2867
      5  CB        14.7430   38.2530   61.1140 C.3     9  ASN9        0.1155
      6  CG        13.8230   39.4190   60.8530 C.2     9  ASN9        0.2627
      7  OD1       14.1030   40.2550   59.9970 O.2     9  ASN9       -0.2716
      8  ND2       12.7230   39.4870   61.5840 N.am    9  ASN9       -0.0877
      9  N         14.1600   39.6750   65.1510 N.3    11  ASP11      -0.1225
     10  CA        13.2790   39.0600   66.1400 C.3    11  ASP11       0.1805
     11  C         13.6880   37.6250   66.4780 C.2    11  ASP11       0.2597
     12  O         13.0330   36.9470   67.2740 O.2    11  ASP11      -0.2718
     13  CB        11.7970   39.1410   65.7160 C.3    11  ASP11       0.1424
     14  CG        11.5370   38.6400   64.2920 C.2    11  ASP11       0.3668
     15  OD1       12.2870   37.7810   63.7830 O.co2  11  ASP11      -0.2456
     16  OD2       10.5490   39.1050   63.6810 O.co2  11  ASP11      -0.2456
     17  N         14.7730   37.1680   65.8640 N.am   12  LYS12      -0.1979
     18  CA        15.2680   35.8260   66.1010 C.3    12  LYS12       0.1596
     19  C         16.3670   35.8530   67.1570 C.2    12  LYS12       0.2287
     20  O         16.7780   36.9230   67.6010 O.2    12  LYS12      -0.2864
     21  CB        15.7990   35.2230   64.8030 C.3    12  LYS12       0.0298
     22  CG        14.8550   35.3580   63.6050 C.3    12  LYS12       0.0038
     23  CD        13.4250   34.8780   63.8810 C.3    12  LYS12       0.0206
     24  CE        13.3410   33.4030   64.2680 C.3    12  LYS12       0.1093
     25  NZ        13.7330   33.1120   65.6850 N.3    12  LYS12      -0.1314
     26  N         15.6780   40.5720   53.9820 N.3    41  GLU41      -0.1245
     27  CA        15.1110   39.6740   52.9810 C.3    41  GLU41       0.1567
     28  C         15.0050   40.4320   51.6580 C.2    41  GLU41       0.2260
     29  O         14.7800   39.8400   50.6040 O.2    41  GLU41      -0.2867
     30  CB        13.7380   39.1430   53.4140 C.3    41  GLU41       0.0388
     31  CG        12.5540   40.0850   53.1960 C.3    41  GLU41       0.1160
     32  CD        12.3030   41.0360   54.3520 C.2    41  GLU41       0.3649
     33  OE1       13.2420   41.7440   54.7580 O.co2  41  GLU41      -0.2457
     34  OE2       11.1530   41.0890   54.8430 O.co2  41  GLU41      -0.2457
     35  N         16.0820   32.9460   56.9860 N.3    59  TRP59      -0.1227
     36  CA        14.7660   33.4630   56.6550 C.3    59  TRP59       0.1737
     37  C         13.8250   32.3100   56.3820 C.2    59  TRP59       0.2595
     38  O         14.2640   31.1940   56.1130 O.2    59  TRP59      -0.2718
     39  CB        14.8080   34.3940   55.4460 C.3    59  TRP59       0.0564
     40  CG        13.5890   35.2620   55.3580 C.ar   59  TRP59       0.0003
     41  CD1       12.5300   35.0990   54.5230 C.ar   59  TRP59       0.0946
     42  CD2       13.3050   36.4290   56.1410 C.ar   59  TRP59       0.0152
     43  NE1       11.6050   36.0920   54.7290 N.ar   59  TRP59      -0.2442
     44  CE2       12.0550   36.9210   55.7180 C.ar   59  TRP59       0.0810
     45  CE3       13.9880   37.1060   57.1600 C.ar   59  TRP59       0.0012
     46  CZ2       11.4690   38.0590   56.2780 C.ar   59  TRP59       0.0191
     47  CZ3       13.4040   38.2390   57.7150 C.ar   59  TRP59       0.0001
     48  CH2       12.1580   38.7030   57.2720 C.ar   59  TRP59       0.0015
     49  N         12.5320   32.5770   56.5080 N.am   60  ALA60      -0.1980
     50  CA        11.5210   31.5680   56.2520 C.3    60  ALA60       0.1597
     51  C         11.7000   31.1120   54.8090 C.2    60  ALA60       0.2287
     52  O         12.0580   31.9080   53.9340 O.2    60  ALA60      -0.2864
     53  CB        10.1390   32.1440   56.4660 C.3    60  ALA60       0.0319
     54  N          9.7910   30.5220   52.2960 N.3    62  ASP62      -0.1225
     55  CA         9.0470   31.1740   51.2150 C.3    62  ASP62       0.1805
     56  C          9.8160   32.1240   50.3120 C.2    62  ASP62       0.2597
     57  O          9.4010   32.3840   49.1800 O.2    62  ASP62      -0.2718
     58  CB         7.8150   31.8920   51.7550 C.3    62  ASP62       0.1424
     59  CG         8.1600   33.0910   52.6110 C.2    62  ASP62       0.3668
     60  OD1        9.0210   32.9620   53.4980 O.co2  62  ASP62      -0.2456
     61  OD2        7.5550   34.1620   52.4110 O.co2  62  ASP62      -0.2456
     62  N         10.9190   32.6620   50.8080 N.am   63  ARG63      -0.1979
     63  CA        11.7170   33.5880   50.0170 C.3    63  ARG63       0.1597
     64  C         12.8000   32.9150   49.1920 C.2    63  ARG63       0.2287
     65  O         13.2000   33.4270   48.1510 O.2    63  ARG63      -0.2864
     66  CB        12.3710   34.6200   50.9300 C.3    63  ARG63       0.0334
     67  CG        11.4330   35.6830   51.4280 C.3    63  ARG63       0.0492
     68  CD        11.3870   36.8420   50.4690 C.3    63  ARG63       0.2205
     69  NE        10.4490   37.8670   50.9130 N.pl3  63  ARG63      -0.0865
     70  CZ        10.4160   39.1100   50.4450 C.cat  63  ARG63       0.5346
     71  NH1       11.2820   39.4990   49.5100 N.pl3  63  ARG63       0.1354
     72  NH2        9.4990   39.9590   50.9000 N.pl3  63  ARG63       0.1354
     73  N          7.7000   27.4810   62.3010 N.3   108  GLU108     -0.1245
     74  CA         7.0670   28.6070   62.9730 C.3   108  GLU108      0.1567
     75  C          5.5990   28.7250   62.6130 C.2   108  GLU108      0.2260
     76  O          5.2230   28.5840   61.4540 O.2   108  GLU108     -0.2867
     77  CB         7.7220   29.9170   62.5570 C.3   108  GLU108      0.0388
     78  CG         9.2250   29.9260   62.5260 C.3   108  GLU108      0.1160
     79  CD         9.7650   31.2200   61.9550 C.2   108  GLU108      0.3649
     80  OE1        9.3110   31.6330   60.8670 O.co2 108  GLU108     -0.2457
     81  OE2       10.6360   31.8390   62.5950 O.co2 108  GLU108     -0.2457
     82  N          2.0920   43.9740   58.7680 N.3   150  GLU150     -0.1231
     83  CA         2.6030   42.8230   58.0350 C.3   150  GLU150      0.1684
     84  C          1.4600   41.8590   57.7880 C.2   150  GLU150      0.2434
     85  O          0.8210   41.3840   58.7310 O.2   150  GLU150     -0.2733
     86  CB         3.7040   42.1150   58.8210 C.3   150  GLU150      0.0402
     87  CG         5.0000   42.9020   58.9460 C.3   150  GLU150      0.1161
     88  CD         5.6540   43.1800   57.6090 C.2   150  GLU150      0.3649
     89  OE1        6.0650   42.2170   56.9260 O.co2 150  GLU150     -0.2457
     90  OE2        5.7670   44.3690   57.2520 O.co2 150  GLU150     -0.2457
     91  N          1.1840   41.5640   56.5070 N.am  151  PRO151     -0.2718
     92  CA         0.1110   40.6560   56.0840 C.3   151  PRO151      0.1535
     93  C          0.2450   39.2280   56.6130 C.2   151  PRO151      0.2599
     94  O         -0.6690   38.4140   56.4470 O.2   151  PRO151     -0.2715
     95  CB         0.1960   40.7180   54.5580 C.3   151  PRO151      0.0310
     96  CG         1.6420   41.0190   54.3070 C.3   151  PRO151      0.0237
     97  CD         1.9370   42.0620   55.3420 C.3   151  PRO151      0.0939
     98  N          1.3840   38.9310   57.2330 N.am  152  TYR152     -0.1960
     99  CA         1.6390   37.6150   57.7970 C.3   152  TYR152      0.1771
    100  C          0.7680   37.3860   59.0320 C.2   152  TYR152      0.2619
    101  O          0.3400   36.2650   59.3000 O.2   152  TYR152     -0.2715
    102  CB         3.1150   37.4930   58.1540 C.3   152  TYR152      0.0574
    103  CG         3.4930   36.2250   58.8820 C.ar  152  TYR152     -0.0198
    104  CD1        3.8750   35.0860   58.1840 C.ar  152  TYR152     -0.0009
    105  CD2        3.5380   36.1900   60.2750 C.ar  152  TYR152     -0.0009
    106  CE1        4.3060   33.9430   58.8540 C.ar  152  TYR152      0.0417
    107  CE2        3.9680   35.0540   60.9540 C.ar  152  TYR152      0.0417
    108  CZ         4.3560   33.9350   60.2380 C.ar  152  TYR152      0.1957
    109  OH         4.8420   32.8350   60.9090 O.3   152  TYR152     -0.2866
    110  N          0.5150   38.4540   59.7800 N.am  153  PHE153     -0.1974
    111  CA        -0.2970   38.3770   60.9910 C.3   153  PHE153      0.1639
    112  C         -1.7860   38.3530   60.7060 C.2   153  PHE153      0.2290
    113  O         -2.5580   37.7610   61.4650 O.2   153  PHE153     -0.2864
    114  CB         0.0350   39.5420   61.9390 C.3   153  PHE153      0.0560
    115  CG         1.4230   39.4710   62.5270 C.ar  153  PHE153     -0.0200
    116  CD1        1.6640   38.7420   63.6880 C.ar  153  PHE153     -0.0042
    117  CD2        2.4940   40.0960   61.8980 C.ar  153  PHE153     -0.0042
    118  CE1        2.9430   38.6320   64.2080 C.ar  153  PHE153     -0.0003
    119  CE2        3.7810   39.9890   62.4130 C.ar  153  PHE153     -0.0003
    120  CZ         4.0040   39.2560   63.5680 C.ar  153  PHE153     -0.0000
    121  N          4.4140   46.0060   65.0060 N.3   207  TYR207     -0.1241
    122  CA         4.9610   44.9730   65.8870 C.3   207  TYR207      0.1605
    123  C          5.3680   45.4740   67.2660 C.2   207  TYR207      0.2264
    124  O          5.0520   44.8430   68.2780 O.2   207  TYR207     -0.2867
    125  CB         6.1440   44.2640   65.2200 C.3   207  TYR207      0.0534
    126  CG         6.5910   42.9970   65.9250 C.ar  207  TYR207     -0.0201
    127  CD1        7.5050   43.0440   66.9720 C.ar  207  TYR207     -0.0009
    128  CD2        6.1050   41.7470   65.5370 C.ar  207  TYR207     -0.0009
    129  CE1        7.9250   41.8800   67.6190 C.ar  207  TYR207      0.0417
    130  CE2        6.5210   40.5720   66.1790 C.ar  207  TYR207      0.0417
    131  CZ         7.4270   40.6540   67.2190 C.ar  207  TYR207      0.1957
    132  OH         7.8370   39.5260   67.8770 O.3   207  TYR207     -0.2866
    133  N          9.1610   33.1840   68.8390 N.3   227  TRP227     -0.1241
    134  CA        10.2660   34.0950   69.0950 C.3   227  TRP227      0.1605
    135  C          9.9200   35.2030   70.0900 C.2   227  TRP227      0.2264
    136  O         10.8130   35.8190   70.6630 O.2   227  TRP227     -0.2867
    137  CB        10.7450   34.7050   67.7730 C.3   227  TRP227      0.0550
    138  CG         9.6750   35.4530   67.0110 C.ar  227  TRP227      0.0003
    139  CD1        9.2750   36.7480   67.2130 C.ar  227  TRP227      0.0946
    140  CD2        8.8630   34.9490   65.9390 C.ar  227  TRP227      0.0152
    141  NE1        8.2620   37.0780   66.3400 N.ar  227  TRP227     -0.2442
    142  CE2        7.9890   35.9960   65.5470 C.ar  227  TRP227      0.0810
    143  CE3        8.7850   33.7190   65.2750 C.ar  227  TRP227      0.0012
    144  CZ2        7.0480   35.8470   64.5190 C.ar  227  TRP227      0.0191
    145  CZ3        7.8470   33.5710   64.2520 C.ar  227  TRP227      0.0001
    146  CH2        6.9900   34.6340   63.8850 C.ar  227  TRP227      0.0015
    147  N          5.7230   28.7080   58.2260 N.3   257  GLY257     -0.1225
    148  CA         7.0200   28.8950   57.6100 C.3   257  GLY257      0.1811
    149  C          8.1270   28.1220   58.2970 C.2   257  GLY257      0.2280
    150  O          8.1110   27.9260   59.5110 O.2   257  GLY257     -0.2866
    151  N         11.9870   28.1490   59.1800 N.3   259  LEU259     -0.1245
    152  CA        13.1810   28.9930   59.2740 C.3   259  LEU259      0.1561
    153  C         14.3000   28.2570   58.5620 C.2   259  LEU259      0.2260
    154  O         14.6340   27.1280   58.9240 O.2   259  LEU259     -0.2867
    155  CB        13.5730   29.2290   60.7340 C.3   259  LEU259      0.0270
    156  CG        14.8150   30.0880   60.9920 C.3   259  LEU259      0.0019
    157  CD1       14.5400   31.5430   60.6660 C.3   259  LEU259      0.0001
    158  CD2       15.2330   29.9560   62.4400 C.3   259  LEU259      0.0001
    159  N          3.6160   27.6760   53.5440 N.3   327  MET327     -0.1245
    160  CA         3.6500   28.6030   52.4340 C.3   327  MET327      0.1570
    161  C          4.5050   28.1490   51.2710 C.2   327  MET327      0.2261
    162  O          5.5700   27.5630   51.4550 O.2   327  MET327     -0.2867
    163  CB         4.0240   30.0230   52.8790 C.3   327  MET327      0.0387
    164  CG         5.2000   30.1690   53.8100 C.3   327  MET327      0.0595
    165  SD         5.4950   31.9360   54.1250 S.3   327  MET327     -0.1393
    166  CE         4.3130   32.2700   55.3820 C.3   327  MET327      0.0692
    167  N          2.9790   38.6690   48.7210 N.3   337  TRP337     -0.1241
    168  CA         2.9860   39.2760   50.0470 C.3   337  TRP337      0.1605
    169  C          2.9000   40.7880   49.9590 C.2   337  TRP337      0.2264
    170  O          2.3420   41.4280   50.8470 O.2   337  TRP337     -0.2867
    171  CB         4.2350   38.8760   50.8340 C.3   337  TRP337      0.0550
    172  CG         4.1700   37.5130   51.4730 C.ar  337  TRP337      0.0003
    173  CD1        4.9470   36.4250   51.1730 C.ar  337  TRP337      0.0946
    174  CD2        3.3150   37.1050   52.5480 C.ar  337  TRP337      0.0152
    175  NE1        4.6310   35.3680   51.9990 N.ar  337  TRP337     -0.2442
    176  CE2        3.6320   35.7590   52.8530 C.ar  337  TRP337      0.0810
    177  CE3        2.3100   37.7430   53.2870 C.ar  337  TRP337      0.0012
    178  CZ2        2.9850   35.0440   53.8630 C.ar  337  TRP337      0.0191
    179  CZ3        1.6640   37.0290   54.2930 C.ar  337  TRP337      0.0001
    180  CH2        2.0060   35.6940   54.5710 C.ar  337  TRP337      0.0015
    181  N         -0.0070   42.9900   51.2260 N.3   341  ARG341     -0.1245
    182  CA         0.3950   44.0130   52.1860 C.3   341  ARG341      0.1563
    183  C         -0.3350   45.3210   51.8890 C.2   341  ARG341      0.2260
    184  O         -0.9390   45.9380   52.7770 O.2   341  ARG341     -0.2867
    185  CB         1.9020   44.2620   52.0890 C.3   341  ARG341      0.0307
    186  CG         2.3750   45.5360   52.7890 C.3   341  ARG341      0.0489
    187  CD         3.8110   45.8760   52.4190 C.3   341  ARG341      0.2205
    188  NE         4.7350   44.8130   52.8060 N.pl3 341  ARG341     -0.0865
    189  CZ         5.0880   44.5460   54.0610 C.cat 341  ARG341      0.5346
    190  NH1        4.5990   45.2700   55.0630 N.pl3 341  ARG341      0.1354
    191  NH2        5.9180   43.5400   54.3120 N.pl3 341  ARG341      0.1354
@<TRIPOS>BOND
     1    65    64    2
     2   167   168    1
     3    57    56    2
     4    64    63    1
     5    71    70    1
     6   169   168    1
     7   169   170    2
     8    63    62    1
     9    63    66    1
    10   168   171    1
    11    56    62   am
    12    56    55    1
    13    70    72    1
    14    70    69    2
    15    68    69    1
    16    68    67    1
    17    29    28    2
    18   171   172    1
    19    66    67    1
    20   173   172   ar
    21   173   175   ar
    22    55    58    1
    23    55    54    1
    24   181   182    1
    25   161   162    2
    26   161   160    1
    27   172   174   ar
    28    28    27    1
    29    58    59    1
    30   183   182    1
    31   183   184    2
    32   175   176   ar
    33   185   182    1
    34   185   186    1
    35    61    59   ar
    36   187   186    1
    37   187   188    1
    38   160   163    1
    39   160   159    1
    40   174   176   ar
    41   174   177   ar
    42    59    60   ar
    43   188   189    2
    44   176   178   ar
    45   163   164    1
    46    27    30    1
    47    27    26    1
    48    31    30    1
    49    31    32    1
    50   177   179   ar
    51   164   165    1
    52   178   180   ar
    53    52    51    2
    54   189   191    1
    55   189   190    1
    56   165   166    1
    57   179   180   ar
    58    96    95    1
    59    96    97    1
    60    32    33   ar
    61    32    34   ar
    62    41    43   ar
    63    41    40   ar
    64    95    92    1
    65    43    44   ar
    66    51    50    1
    67    97    91    1
    68    40    39    1
    69    40    42   ar
    70    39    36    1
    71    44    42   ar
    72    44    46   ar
    73    92    91    1
    74    92    93    1
    75    38    37    2
    76    42    45   ar
    77    50    53    1
    78    50    49    1
    79    46    48   ar
    80    37    49   am
    81    37    36    1
    82    94    93    2
    83    91    84   am
    84    93    98   am
    85    36    35    1
    86    89    88   ar
    87    45    47   ar
    88    98    99    1
    89    90    88   ar
    90    48    47   ar
    91    88    87    1
    92   148   147    1
    93   148   149    1
    94    84    83    1
    95    84    85    2
    96    99   102    1
    97    99   100    1
    98    83    82    1
    99    83    86    1
   100   102   103    1
   101   104   106   ar
   102   104   103   ar
   103   149   150    2
   104   153   154    2
   105   153   152    1
   106    86    87    1
   107   106   108   ar
   108   103   105   ar
   109   100   101    2
   110   100   110   am
   111   151   152    1
   112   152   155    1
   113   110   111    1
   114     7     6    2
   115   108   109    1
   116   108   107   ar
   117   105   107   ar
   118   157   156    1
   119   112   111    1
   120   112   113    2
   121   155   156    1
   122     6     5    1
   123     6     8   am
   124    80    79   ar
   125   111   114    1
   126   156   158    1
   127     1     2    1
   128     5     2    1
   129     2     3    1
   130    76    75    2
   131   117   119   ar
   132   117   115   ar
   133   114   115    1
   134    79    78    1
   135    79    81   ar
   136    73    74    1
   137   119   120   ar
   138    78    77    1
   139   115   116   ar
   140    77    74    1
   141    75    74    1
   142     3     4    2
   143   120   118   ar
   144    22    23    1
   145    22    21    1
   146    16    14   ar
   147   116   118   ar
   148    15    14   ar
   149    23    24    1
   150   146   145   ar
   151   146   144   ar
   152   145   143   ar
   153    24    25    1
   154    14    13    1
   155   144   142   ar
   156    21    18    1
   157   121   122    1
   158     9    10    1
   159   125   122    1
   160   125   126    1
   161   143   140   ar
   162   128   126   ar
   163   128   130   ar
   164   142   140   ar
   165   142   141   ar
   166    13    10    1
   167    17    18    1
   168    17    11   am
   169   122   123    1
   170   126   127   ar
   171   140   138   ar
   172    18    19    1
   173    10    11    1
   174   130   131   ar
   175   141   139   ar
   176    11    12    2
   177   127   129   ar
   178   138   139   ar
   179   138   137    1
   180    19    20    2
   181   131   129   ar
   182   131   132    1
   183   123   124    2
   184   137   134    1
   185   133   134    1
   186   134   135    1
   187   135   136    2
