@<TRIPOS>MOLECULE
tmp/1a7tB00.pdb
 106 101 0 0 0
SMALL
GASTEIGER

@<TRIPOS>ATOM
      1  N         -0.4290   47.8480   75.4700 N.3    26  ILE26      -0.1245
      2  CA         0.7440   47.0290   75.8310 C.3    26  ILE26       0.1561
      3  C          1.6580   47.9970   76.5980 C.2    26  ILE26       0.2260
      4  O          1.9550   49.0510   76.0450 O.2    26  ILE26      -0.2867
      5  CB         1.4090   46.4060   74.6090 C.3    26  ILE26       0.0252
      6  CG1        0.4150   45.4830   73.9250 C.3    26  ILE26       0.0019
      7  CG2        2.6250   45.6160   75.0640 C.3    26  ILE26       0.0019
      8  CD1        0.6500   45.2320   72.4590 C.3    26  ILE26       0.0001
      9  N          4.3120   50.4450   75.1450 N.3    29  TRP29      -0.1241
     10  CA         4.1620   50.5740   73.6970 C.3    29  TRP29       0.1605
     11  C          2.8910   51.3800   73.4850 C.2    29  TRP29       0.2264
     12  O          2.8770   52.0960   72.4900 O.2    29  TRP29      -0.2867
     13  CB         4.0210   49.2380   72.9320 C.3    29  TRP29       0.0550
     14  CG         5.3790   48.5940   72.7940 C.ar   29  TRP29       0.0003
     15  CD1        5.9820   47.7000   73.6420 C.ar   29  TRP29       0.0946
     16  CD2        6.3400   48.8900   71.7740 C.ar   29  TRP29       0.0152
     17  NE1        7.2450   47.4010   73.2080 N.ar   29  TRP29      -0.2442
     18  CE2        7.5070   48.1140   72.0650 C.ar   29  TRP29       0.0810
     19  CE3        6.3460   49.7220   70.6490 C.ar   29  TRP29       0.0012
     20  CZ2        8.6260   48.1640   71.2680 C.ar   29  TRP29       0.0191
     21  CZ3        7.4980   49.7600   69.8460 C.ar   29  TRP29       0.0001
     22  CH2        8.6110   48.9920   70.1660 C.ar   29  TRP29       0.0015
     23  N         -1.8230   49.2640   70.9130 N.3    32  VAL32      -0.1245
     24  CA        -1.3460   48.6200   69.6900 C.3    32  VAL32       0.1561
     25  C         -2.3510   47.8090   68.9140 C.2    32  VAL32       0.2260
     26  O         -2.9840   46.9090   69.4950 O.2    32  VAL32      -0.2867
     27  CB        -0.2910   47.5640   70.1470 C.3    32  VAL32       0.0252
     28  CG1        0.3500   46.8590   68.9350 C.3    32  VAL32       0.0019
     29  CG2        0.8130   48.3070   70.8900 C.3    32  VAL32       0.0019
     30  N         -3.4110   39.1940   71.2050 N.3    52  ILE52      -0.1245
     31  CA        -2.3750   39.1700   72.2500 C.3    52  ILE52       0.1561
     32  C         -2.6620   38.3140   73.4530 C.2    52  ILE52       0.2260
     33  O         -1.7160   37.9740   74.2080 O.2    52  ILE52      -0.2867
     34  CB        -2.1810   40.6650   72.5670 C.3    52  ILE52       0.0252
     35  CG1       -0.8220   41.0790   73.1190 C.3    52  ILE52       0.0019
     36  CG2       -3.2320   41.1730   73.5880 C.3    52  ILE52       0.0019
     37  CD1       -1.2340   42.2480   74.1340 C.3    52  ILE52       0.0001
     38  N          6.2340   36.0770   68.5590 N.3    81  HIS81      -0.1226
     39  CA         5.8570   37.2130   69.3690 C.3    81  HIS81       0.1752
     40  C          4.4100   37.0820   69.8220 C.2    81  HIS81       0.2597
     41  O          3.6450   36.3150   69.2420 O.2    81  HIS81      -0.2718
     42  CB         6.1060   38.5460   68.6830 C.3    81  HIS81       0.0759
     43  CG         7.5760   38.9090   68.5570 C.ar   81  HIS81       0.0818
     44  ND1        8.0920   39.8240   67.7130 N.ar   81  HIS81      -0.2268
     45  CD2        8.6170   38.5250   69.3520 C.ar   81  HIS81       0.1154
     46  CE1        9.3900   39.9950   67.8690 C.ar   81  HIS81       0.1986
     47  NE2        9.7310   39.2490   68.9080 N.ar   81  HIS81      -0.2212
     48  N          4.0470   37.7590   70.9080 N.am   82  GLY82      -0.1942
     49  CA         2.7580   37.7220   71.5250 C.3    82  GLY82       0.2014
     50  C          1.6260   38.1010   70.5780 C.2    82  GLY82       0.2638
     51  O          0.5450   37.5770   70.8420 O.2    82  GLY82      -0.2714
     52  N          1.8870   38.9850   69.6280 N.am   83  ASP83      -0.1971
     53  CA         0.8020   39.3650   68.6900 C.3    83  ASP83       0.1709
     54  C          0.6260   38.3200   67.6170 C.2    83  ASP83       0.2293
     55  O         -0.1110   38.5580   66.6430 O.2    83  ASP83      -0.2864
     56  CB         1.0830   40.7390   68.0940 C.3    83  ASP83       0.1436
     57  CG         2.4510   40.8860   67.4340 C.2    83  ASP83       0.3671
     58  OD1        3.4450   40.4520   68.1150 O.co2  83  ASP83      -0.2456
     59  OD2        2.5990   41.4110   66.2720 O.co2  83  ASP83      -0.2456
     60  N         11.8100   41.0120   60.3930 N.3   142  HIS142     -0.1241
     61  CA        11.4410   41.5910   61.6940 C.3   142  HIS142      0.1621
     62  C         11.7610   40.6290   62.8270 C.2   142  HIS142      0.2264
     63  O         12.1390   40.9770   63.9520 O.2   142  HIS142     -0.2867
     64  CB         9.9180   41.8770   61.6730 C.3   142  HIS142      0.0745
     65  CG         9.2680   41.9500   63.0140 C.ar  142  HIS142      0.0817
     66  ND1        9.2430   43.0630   63.7450 N.ar  142  HIS142     -0.2268
     67  CD2        8.5900   40.9760   63.7220 C.ar  142  HIS142      0.1154
     68  CE1        8.6010   42.8460   64.9190 C.ar  142  HIS142      0.1986
     69  NE2        8.2140   41.6010   64.9070 N.ar  142  HIS142     -0.2212
     70  N          4.4570   40.9020   60.2750 N.3   161  CYS161     -0.1292
     71  CA         5.2660   41.9560   60.7940 C.3   161  CYS161      0.1363
     72  C          6.5510   42.2680   60.0840 C.3   161  CYS161      0.2019
     73  O          7.0840   43.3450   60.4160 O.3   161  CYS161     -0.2188
     74  CB         5.5380   41.8080   62.3040 C.3   161  CYS161      0.0903
     75  SG         3.9600   41.5000   63.2160 S.3   161  CYS161     -0.0805
     76  N          5.7530   46.8120   57.0310 N.3   164  LYS164     -0.1245
     77  CA         5.2140   47.9730   57.7440 C.3   164  LYS164      0.1561
     78  C          4.0900   48.5780   56.8760 C.2   164  LYS164      0.2260
     79  O          4.1600   48.5100   55.6100 O.2   164  LYS164     -0.2867
     80  CB         6.2810   49.0710   57.9420 C.3   164  LYS164      0.0271
     81  CG         7.4860   48.5170   58.7450 C.3   164  LYS164      0.0035
     82  CD         7.0080   48.1660   60.1490 C.3   164  LYS164      0.0206
     83  CE         8.1380   47.5460   60.9990 C.3   164  LYS164      0.1093
     84  NZ         7.7380   47.4650   62.4120 N.3   164  LYS164     -0.1314
     85  N         10.6610   50.2910   63.9630 N.3   172  GLY172     -0.1210
     86  CA        10.0030   49.7130   65.1370 C.3   172  GLY172      0.1956
     87  C         10.9000   48.7750   65.9680 C.2   172  GLY172      0.2611
     88  O         12.1140   48.8770   66.0200 O.2   172  GLY172     -0.2717
     89  N         10.3080   47.8030   66.6110 N.am  173  ASN173     -0.1974
     90  CA        10.9720   46.8340   67.4660 C.3   173  ASN173      0.1688
     91  C         11.8940   45.9080   66.7090 C.2   173  ASN173      0.2292
     92  O         11.4070   44.9920   66.0500 O.2   173  ASN173     -0.2864
     93  CB         9.8230   45.9480   68.0290 C.3   173  ASN173      0.1181
     94  CG        10.3730   44.8550   68.9390 C.2   173  ASN173      0.2629
     95  OD1       11.5280   44.9340   69.3680 O.2   173  ASN173     -0.2716
     96  ND2        9.5230   43.8840   69.2130 N.am  173  ASN173     -0.0877
     97  N          0.7680   44.9730   61.5260 N.3   203  HIS203     -0.1241
     98  CA         0.1020   46.0850   62.2020 C.3   203  HIS203      0.1621
     99  C         -0.2940   47.1530   61.1830 C.2   203  HIS203      0.2264
    100  O          0.4480   47.4400   60.2850 O.2   203  HIS203     -0.2867
    101  CB         1.0590   46.7240   63.2570 C.3   203  HIS203      0.0745
    102  CG         1.6170   45.7080   64.2100 C.ar  203  HIS203      0.0817
    103  ND1        0.9150   45.2360   65.2950 N.ar  203  HIS203     -0.2268
    104  CD2        2.8110   45.0650   64.2420 C.ar  203  HIS203      0.1154
    105  CE1        1.5940   44.3070   65.9380 C.ar  203  HIS203      0.1986
    106  NE2        2.7400   44.1840   65.3320 N.ar  203  HIS203     -0.2212
@<TRIPOS>BOND
     1    79    78    2
     2    78    77    1
     3    76    77    1
     4    77    80    1
     5    80    81    1
     6    81    82    1
     7    72    73    1
     8    72    71    1
     9    82    83    1
    10    70    71    1
    11   100    99    2
    12    60    61    1
    13    71    74    1
    14    83    84    1
    15    99    98    1
    16    97    98    1
    17    64    61    1
    18    64    65    1
    19    61    62    1
    20    98   101    1
    21    74    75    1
    22    62    63    2
    23    65    67   ar
    24    65    66   ar
    25   101   102    1
    26    67    69   ar
    27    66    68   ar
    28    85    86    1
    29   102   104   ar
    30   102   103   ar
    31   104   106   ar
    32    69    68   ar
    33    86    87    1
    34   103   105   ar
    35   106   105   ar
    36    87    88    2
    37    87    89   am
    38    92    91    2
    39    59    57   ar
    40    89    90    1
    41    55    54    2
    42    91    90    1
    43    57    56    1
    44    57    58   ar
    45    90    93    1
    46    54    53    1
    47    44    46   ar
    48    44    43   ar
    49    46    47   ar
    50    93    94    1
    51    56    53    1
    52    43    42    1
    53    43    45   ar
    54    38    39    1
    55    42    39    1
    56    53    52    1
    57    47    45   ar
    58    25    26    2
    59    25    24    1
    60    28    27    1
    61    94    96   am
    62    94    95    2
    63    41    40    2
    64    39    40    1
    65    52    50   am
    66    24    27    1
    67    24    23    1
    68    40    48   am
    69    21    22   ar
    70    21    19   ar
    71    27    29    1
    72    22    20   ar
    73    50    51    2
    74    50    49    1
    75    19    16   ar
    76    48    49    1
    77    30    31    1
    78    20    18   ar
    79    16    18   ar
    80    16    14   ar
    81    18    17   ar
    82    31    34    1
    83    31    32    1
    84     8     6    1
    85    12    11    2
    86    34    35    1
    87    34    36    1
    88    14    13    1
    89    14    15   ar
    90    13    10    1
    91    35    37    1
    92    17    15   ar
    93    32    33    2
    94    11    10    1
    95    10     9    1
    96     6     5    1
    97     5     7    1
    98     5     2    1
    99     1     2    1
   100     2     3    1
   101     4     3    2
