@<TRIPOS>MOLECULE
tmp/1a7vB00.pdb
 214 203 0 0 0
SMALL
GASTEIGER

@<TRIPOS>ATOM
      1  N         17.5850   44.6970    5.3810 N.3     5  ILE5       -0.1245
      2  CA        17.6500   46.1190    5.0670 C.3     5  ILE5        0.1561
      3  C         17.6210   46.9620    6.3400 C.2     5  ILE5        0.2260
      4  O         18.4270   47.8740    6.4970 O.2     5  ILE5       -0.2867
      5  CB        16.5290   46.5400    4.0980 C.3     5  ILE5        0.0252
      6  CG1       16.6360   45.7090    2.8150 C.3     5  ILE5        0.0019
      7  CG2       16.6430   48.0280    3.7710 C.3     5  ILE5        0.0019
      8  CD1       15.5760   45.9980    1.7830 C.3     5  ILE5        0.0001
      9  N         21.0780   46.3470    8.0910 N.3     8  ARG8       -0.1231
     10  CA        22.2010   47.0670    7.5210 C.3     8  ARG8        0.1694
     11  C         22.1110   48.5750    7.6830 C.2     8  ARG8        0.2591
     12  O         23.1110   49.2110    8.0230 O.2     8  ARG8       -0.2718
     13  CB        22.4150   46.6830    6.0570 C.3     8  ARG8        0.0321
     14  CG        21.3440   47.1430    5.0940 C.3     8  ARG8        0.0489
     15  CD        21.4710   46.3300    3.8300 C.3     8  ARG8        0.2205
     16  NE        20.6330   46.8100    2.7440 N.pl3   8  ARG8       -0.0865
     17  CZ        20.2600   46.0590    1.7150 C.cat   8  ARG8        0.5346
     18  NH1       20.6400   44.7900    1.6490 N.pl3   8  ARG8        0.1354
     19  NH2       19.5530   46.5890    0.7270 N.pl3   8  ARG8        0.1354
     20  N         20.9310   49.1500    7.4600 N.am    9  LYS9       -0.1980
     21  CA        20.7750   50.5960    7.6090 C.3     9  LYS9        0.1596
     22  C         21.1480   50.9960    9.0340 C.2     9  LYS9        0.2287
     23  O         21.8320   51.9950    9.2480 O.2     9  LYS9       -0.2864
     24  CB        19.3480   51.0440    7.2720 C.3     9  LYS9        0.0298
     25  CG        18.9220   50.7150    5.8470 C.3     9  LYS9        0.0038
     26  CD        18.1710   51.8540    5.1840 C.3     9  LYS9        0.0206
     27  CE        16.9370   52.2480    5.9650 C.3     9  LYS9        0.1093
     28  NZ        16.1970   53.3390    5.2800 N.3     9  LYS9       -0.1314
     29  N         24.9910   50.7750    9.4240 N.3    12  LEU12      -0.1231
     30  CA        25.5890   51.8530    8.6450 C.3    12  LEU12       0.1693
     31  C         25.3720   53.2020    9.3340 C.2    12  LEU12       0.2591
     32  O         26.2320   54.0840    9.2770 O.2    12  LEU12      -0.2718
     33  CB        25.0110   51.8700    7.2300 C.3    12  LEU12       0.0284
     34  CG        25.5540   50.7570    6.3290 C.3    12  LEU12       0.0019
     35  CD1       24.6700   50.5440    5.1170 C.3    12  LEU12       0.0001
     36  CD2       26.9690   51.1090    5.9090 C.3    12  LEU12       0.0001
     37  N         24.2280   53.3500    9.9940 N.am   13  LYS13      -0.1980
     38  CA        23.9030   54.5750   10.7160 C.3    13  LYS13       0.1596
     39  C         24.9000   54.7320   11.8640 C.2    13  LYS13       0.2287
     40  O         25.3290   55.8460   12.1950 O.2    13  LYS13      -0.2864
     41  CB        22.4850   54.4810   11.2790 C.3    13  LYS13       0.0298
     42  CG        22.0100   55.6990   12.0470 C.3    13  LYS13       0.0038
     43  CD        21.1190   55.2810   13.2080 C.3    13  LYS13       0.0206
     44  CE        20.2810   56.4440   13.7170 C.3    13  LYS13       0.1093
     45  NZ        19.2400   56.8200   12.7170 N.3    13  LYS13      -0.1314
     46  N         27.9500   53.6620   11.8510 N.3    15  MET15      -0.1230
     47  CA        29.2530   54.0380   11.3170 C.3    15  MET15       0.1702
     48  C         29.2760   55.5550   11.1490 C.2    15  MET15       0.2592
     49  O         30.2990   56.2010   11.4010 O.2    15  MET15      -0.2718
     50  CB        29.5360   53.3620    9.9730 C.3    15  MET15       0.0401
     51  CG        29.8540   51.8840   10.0620 C.3    15  MET15       0.0596
     52  SD        30.9750   51.3690    8.7390 S.3    15  MET15      -0.1393
     53  CE        29.9100   51.4440    7.3560 C.3    15  MET15       0.0692
     54  N         28.1420   56.1150   10.7280 N.am   16  GLY16      -0.1957
     55  CA        28.0280   57.5550   10.5620 C.3    16  GLY16       0.1869
     56  C         28.2250   58.2340   11.9060 C.2    16  GLY16       0.2309
     57  O         28.9960   59.1860   12.0170 O.2    16  GLY16      -0.2863
     58  N         31.8330   58.3140   13.1290 N.3    19  THR19      -0.1218
     59  CA        32.7210   59.2920   12.5070 C.3    19  THR19       0.1862
     60  C         32.6020   60.6930   13.1170 C.2    19  THR19       0.2287
     61  O         33.5680   61.4640   13.1180 O.2    19  THR19      -0.2866
     62  CB        32.5070   59.3640   10.9790 C.3    19  THR19       0.1770
     63  OG1       31.1730   59.8020   10.7010 O.3    19  THR19      -0.2211
     64  CG2       32.7150   57.9880   10.3530 C.3    19  THR19       0.0375
     65  N         34.0790   50.9360   13.6010 N.3    44  ILE44      -0.1245
     66  CA        34.0210   50.9650   12.1400 C.3    44  ILE44       0.1561
     67  C         34.5610   49.6600   11.5440 C.2    44  ILE44       0.2260
     68  O         33.9310   49.0610   10.6700 O.2    44  ILE44      -0.2867
     69  CB        34.8270   52.1640   11.5730 C.3    44  ILE44       0.0252
     70  CG1       34.1900   53.4870   12.0200 C.3    44  ILE44       0.0019
     71  CG2       34.8820   52.0960   10.0550 C.3    44  ILE44       0.0019
     72  CD1       34.9650   54.7230   11.6070 C.3    44  ILE44       0.0001
     73  N         23.8310   41.9690    2.3090 N.3    55  PHE55      -0.1241
     74  CA        23.3710   42.4760    1.0160 C.3    55  PHE55       0.1605
     75  C         22.9380   41.3700    0.0470 C.2    55  PHE55       0.2264
     76  O         23.5930   41.1360   -0.9730 O.2    55  PHE55      -0.2867
     77  CB        24.4500   43.3610    0.3760 C.3    55  PHE55       0.0534
     78  CG        24.6680   44.6640    1.0970 C.ar   55  PHE55      -0.0203
     79  CD1       25.5530   44.7450    2.1690 C.ar   55  PHE55      -0.0042
     80  CD2       23.9590   45.8020    0.7250 C.ar   55  PHE55      -0.0042
     81  CE1       25.7270   45.9380    2.8630 C.ar   55  PHE55      -0.0003
     82  CE2       24.1240   47.0050    1.4140 C.ar   55  PHE55      -0.0003
     83  CZ        25.0090   47.0740    2.4870 C.ar   55  PHE55      -0.0000
     84  N         12.9120   51.2940    2.3780 N.3    64  ASP64      -0.1225
     85  CA        13.5620   52.5410    1.9620 C.3    64  ASP64       0.1805
     86  C         15.0600   52.3470    1.7600 C.2    64  ASP64       0.2598
     87  O         15.8720   52.9960    2.4230 O.2    64  ASP64      -0.2718
     88  CB        13.3110   53.6420    3.0010 C.3    64  ASP64       0.1424
     89  CG        11.8350   53.9190    3.2180 C.2    64  ASP64       0.3668
     90  OD1       11.2740   54.7610    2.4840 O.co2  64  ASP64      -0.2456
     91  OD2       11.2390   53.2990    4.1230 O.co2  64  ASP64      -0.2456
     92  N         15.4230   51.5230    0.7830 N.am   65  THR65      -0.1939
     93  CA        16.8290   51.2360    0.5610 C.3    65  THR65       0.2028
     94  C         17.5000   52.1250   -0.4820 C.2    65  THR65       0.2642
     95  O         16.9200   52.4360   -1.5270 O.2    65  THR65      -0.2714
     96  CB        17.0470   49.7440    0.2290 C.3    65  THR65       0.1808
     97  OG1       18.4500   49.4630    0.1730 O.3    65  THR65      -0.2208
     98  CG2       16.4050   49.3840   -1.1010 C.3    65  THR65       0.0379
     99  N         18.7180   52.5550   -0.1660 N.am   66  ALA66      -0.1963
    100  CA        19.5010   53.4040   -1.0550 C.3    66  ALA66       0.1728
    101  C         20.5460   52.5810   -1.8140 C.2    66  ALA66       0.2616
    102  O         21.3550   53.1300   -2.5750 O.2    66  ALA66      -0.2715
    103  CB        20.1690   54.5240   -0.2590 C.3    66  ALA66       0.0334
    104  N         20.5340   51.2700   -1.5850 N.am   67  ALA67      -0.1977
    105  CA        21.4620   50.3590   -2.2420 C.3    67  ALA67       0.1597
    106  C         21.1460   50.3250   -3.7270 C.2    67  ALA67       0.2287
    107  O         19.9850   50.2390   -4.1150 O.2    67  ALA67      -0.2864
    108  CB        21.3410   48.9580   -1.6400 C.3    67  ALA67       0.0319
    109  N         25.5150   47.0070   -7.0350 N.3    71  ILE71      -0.1245
    110  CA        26.1100   46.2460   -5.9390 C.3    71  ILE71       0.1561
    111  C         26.1690   44.7790   -6.3450 C.2    71  ILE71       0.2260
    112  O         27.1930   44.1150   -6.1930 O.2    71  ILE71      -0.2867
    113  CB        25.2430   46.3470   -4.6550 C.3    71  ILE71       0.0252
    114  CG1       25.2910   47.7640   -4.0900 C.3    71  ILE71       0.0019
    115  CG2       25.6890   45.3340   -3.6130 C.3    71  ILE71       0.0019
    116  CD1       24.3830   47.9650   -2.9090 C.3    71  ILE71       0.0001
    117  N         32.3170   45.3860   -4.3390 N.3    78  PHE78      -0.1241
    118  CA        31.5550   45.9130   -3.2100 C.3    78  PHE78       0.1605
    119  C         32.0540   45.3050   -1.8910 C.2    78  PHE78       0.2264
    120  O         32.4440   46.0300   -0.9840 O.2    78  PHE78      -0.2867
    121  CB        30.0690   45.6080   -3.4240 C.3    78  PHE78       0.0534
    122  CG        29.1730   46.1040   -2.3250 C.ar   78  PHE78      -0.0203
    123  CD1       28.7560   47.4280   -2.2950 C.ar   78  PHE78      -0.0042
    124  CD2       28.7080   45.2320   -1.3470 C.ar   78  PHE78      -0.0042
    125  CE1       27.8820   47.8800   -1.3080 C.ar   78  PHE78      -0.0003
    126  CE2       27.8380   45.6700   -0.3600 C.ar   78  PHE78      -0.0003
    127  CZ        27.4220   47.0010   -0.3420 C.ar   78  PHE78      -0.0000
    128  N         35.4480   46.4450   -0.8130 N.3    81  LEU81      -0.1231
    129  CA        35.4910   47.8130   -0.3160 C.3    81  LEU81       0.1693
    130  C         35.3100   47.8130    1.1970 C.2    81  LEU81       0.2592
    131  O         35.9750   48.5670    1.9110 O.2    81  LEU81      -0.2718
    132  CB        34.4140   48.6680   -0.9870 C.3    81  LEU81       0.0284
    133  CG        34.7690   49.4780   -2.2400 C.3    81  LEU81       0.0019
    134  CD1       34.4230   50.9200   -1.9960 C.3    81  LEU81       0.0001
    135  CD2       36.2480   49.3700   -2.5880 C.3    81  LEU81       0.0001
    136  N         34.4270   46.9480    1.6840 N.am   82  PHE82      -0.1976
    137  CA        34.1800   46.8300    3.1150 C.3    82  PHE82       0.1639
    138  C         35.4270   46.2560    3.7740 C.2    82  PHE82       0.2290
    139  O         35.7650   46.6060    4.9070 O.2    82  PHE82      -0.2864
    140  CB        32.9920   45.9000    3.3820 C.3    82  PHE82       0.0560
    141  CG        31.6530   46.5850    3.3360 C.ar   82  PHE82      -0.0200
    142  CD1       30.9580   46.7210    2.1760 C.ar   82  PHE82      -0.0042
    143  CD2       31.0640   47.0540    4.4700 C.ar   82  PHE82      -0.0042
    144  CE1       29.6950   47.3320    2.1580 C.ar   82  PHE82      -0.0003
    145  CE2       29.8040   47.6630    4.4340 C.ar   82  PHE82      -0.0003
    146  CZ        29.1280   47.7900    3.2870 C.ar   82  PHE82      -0.0000
    147  N         38.0180   49.0040    4.0510 N.3    85  LEU85      -0.1245
    148  CA        37.6550   49.9120    5.1330 C.3    85  LEU85       0.1561
    149  C         38.0750   49.2930    6.4700 C.2    85  LEU85       0.2260
    150  O         38.7390   49.9500    7.2750 O.2    85  LEU85      -0.2867
    151  CB        36.1430   50.1570    5.1430 C.3    85  LEU85       0.0270
    152  CG        35.6040   51.5320    5.5760 C.3    85  LEU85       0.0019
    153  CD1       34.1770   51.3830    6.0930 C.3    85  LEU85       0.0001
    154  CD2       36.4710   52.1650    6.6410 C.3    85  LEU85       0.0001
    155  N         38.3880   57.2160    6.0130 N.3   110  LEU110     -0.1245
    156  CA        37.1760   57.8940    5.5600 C.3   110  LEU110      0.1561
    157  C         37.0190   58.0190    4.0460 C.2   110  LEU110      0.2260
    158  O         35.9180   58.2550    3.5520 O.2   110  LEU110     -0.2867
    159  CB        37.0460   59.2620    6.2330 C.3   110  LEU110      0.0270
    160  CG        37.0850   59.2770    7.7710 C.3   110  LEU110      0.0019
    161  CD1       36.7560   60.6720    8.2830 C.3   110  LEU110      0.0001
    162  CD2       36.0920   58.2730    8.3460 C.3   110  LEU110      0.0001
    163  N         37.2250   55.6850    2.0420 N.3   112  ASN112     -0.1225
    164  CA        36.4910   54.4860    1.6560 C.3   112  ASN112      0.1785
    165  C         34.9780   54.6930    1.6230 C.2   112  ASN112      0.2597
    166  O         34.2990   54.1670    0.7350 O.2   112  ASN112     -0.2718
    167  CB        36.8510   53.3240    2.5810 C.3   112  ASN112      0.1169
    168  CG        38.3010   52.8820    2.4300 C.2   112  ASN112      0.2627
    169  OD1       38.7300   52.4730    1.3540 O.2   112  ASN112     -0.2716
    170  ND2       39.0660   52.9790    3.5100 N.am  112  ASN112     -0.0877
    171  N         34.4560   55.4510    2.5840 N.am  113  CYS113     -0.1970
    172  CA        33.0270   55.7460    2.6640 C.3   113  CYS113      0.1712
    173  C         32.5380   56.3780    1.3650 C.2   113  CYS113      0.2296
    174  O         31.5020   55.9910    0.8080 O.2   113  CYS113     -0.2864
    175  CB        32.7600   56.7140    3.8240 C.3   113  CYS113      0.0983
    176  SG        33.4140   56.1740    5.4370 S.3   113  CYS113     -0.0798
    177  N         32.6960   53.9650   -1.9580 N.3   116  CYS116     -0.1221
    178  CA        31.5620   53.0670   -2.1080 C.3   116  CYS116      0.1808
    179  C         30.2950   53.8320   -2.4720 C.2   116  CYS116      0.2601
    180  O         29.6330   53.5220   -3.4680 O.2   116  CYS116     -0.2717
    181  CB        31.3460   52.2640   -0.8250 C.3   116  CYS116      0.0970
    182  SG        30.0800   50.9590   -0.9600 S.3   116  CYS116     -0.0800
    183  N         29.9860   54.8620   -1.6910 N.am  117  HIS117     -0.1975
    184  CA        28.7920   55.6670   -1.9250 C.3   117  HIS117      0.1656
    185  C         28.7060   56.2210   -3.3370 C.2   117  HIS117      0.2291
    186  O         27.6120   56.3580   -3.8780 O.2   117  HIS117     -0.2864
    187  CB        28.6950   56.7940   -0.9030 C.3   117  HIS117      0.0771
    188  CG        28.5230   56.3270    0.5000 C.ar  117  HIS117      0.0820
    189  ND1       28.7320   57.1250    1.6010 N.ar  117  HIS117     -0.2267
    190  CD2       28.1690   55.1080    1.0000 C.ar  117  HIS117      0.1154
    191  CE1       28.5260   56.4520    2.6980 C.ar  117  HIS117      0.1986
    192  NE2       28.1780   55.2080    2.3680 N.ar  117  HIS117     -0.2212
    193  N         27.8900   52.7150   -5.3890 N.3   120  PHE120     -0.1227
    194  CA        26.8310   51.8510   -4.8840 C.3   120  PHE120      0.1736
    195  C         25.6590   52.4350   -4.1060 C.2   120  PHE120      0.2595
    196  O         24.7620   51.6870   -3.7070 O.2   120  PHE120     -0.2718
    197  CB        27.4610   50.6970   -4.1070 C.3   120  PHE120      0.0547
    198  CG        28.5390   49.9840   -4.8680 C.ar  120  PHE120     -0.0202
    199  CD1       28.2240   49.2000   -5.9710 C.ar  120  PHE120     -0.0042
    200  CD2       29.8710   50.1000   -4.4890 C.ar  120  PHE120     -0.0042
    201  CE1       29.2200   48.5410   -6.6820 C.ar  120  PHE120     -0.0003
    202  CE2       30.8750   49.4440   -5.1940 C.ar  120  PHE120     -0.0003
    203  CZ        30.5480   48.6620   -6.2930 C.ar  120  PHE120     -0.0000
    204  N         25.6390   53.7430   -3.8740 N.am  121  ARG121     -0.1980
    205  CA        24.5070   54.3220   -3.1550 C.3   121  ARG121      0.1597
    206  C         23.8170   55.4380   -3.9260 C.2   121  ARG121      0.2287
    207  O         24.4670   56.2660   -4.5600 O.2   121  ARG121     -0.2864
    208  CB        24.8860   54.8160   -1.7540 C.3   121  ARG121      0.0334
    209  CG        23.6520   55.3000   -0.9740 C.3   121  ARG121      0.0492
    210  CD        23.8890   55.5220    0.5080 C.3   121  ARG121      0.2205
    211  NE        24.7790   56.6430    0.7870 N.pl3 121  ARG121     -0.0865
    212  CZ        24.6330   57.4830    1.8100 C.cat 121  ARG121      0.5346
    213  NH1       23.6210   57.3440    2.6590 N.pl3 121  ARG121      0.1354
    214  NH2       25.5210   58.4470    2.0010 N.pl3 121  ARG121      0.1354
@<TRIPOS>BOND
     1   109   110    1
     2   201   203   ar
     3   201   199   ar
     4   111   112    2
     5   111   110    1
     6   203   202   ar
     7   199   198   ar
     8   110   113    1
     9   193   194    1
    10   202   200   ar
    11   194   197    1
    12   194   195    1
    13   198   200   ar
    14   198   197    1
    15   113   114    1
    16   113   115    1
    17   207   206    2
    18   117   118    1
    19   107   106    2
    20   195   204   am
    21   195   196    2
    22   114   116    1
    23   206   205    1
    24   186   185    2
    25   204   205    1
    26   106   105    1
    27   180   179    2
    28   121   118    1
    29   121   122    1
    30   185   184    1
    31   118   119    1
    32   205   208    1
    33   135   133    1
    34   102   101    2
    35   179   178    1
    36   179   183   am
    37   122   123   ar
    38   122   124   ar
    39   123   125   ar
    40   105   108    1
    41   105   104    1
    42   133   134    1
    43   133   132    1
    44   178   177    1
    45   178   181    1
    46   184   183    1
    47   184   187    1
    48   119   120    2
    49   101   104   am
    50   101   100    1
    51   208   209    1
    52    95    94    2
    53   124   126   ar
    54   125   127   ar
    55    98    96    1
    56   100   103    1
    57   100    99    1
    58   132   129    1
    59   209   210    1
    60    76    75    2
    61   182   181    1
    62   187   188    1
    63   128   129    1
    64    94    99   am
    65    94    93    1
    66   126   127   ar
    67   129   130    1
    68    75    74    1
    69    97    96    1
    70    96    93    1
    71    77    74    1
    72    77    78    1
    73   188   190   ar
    74   188   189   ar
    75   210   211    1
    76    93    92    1
    77    80    78   ar
    78    80    82   ar
    79    19    17    1
    80   166   165    2
    81    92    86   am
    82   211   212    2
    83   174   173    2
    84   190   192   ar
    85    74    73    1
    86    78    79   ar
    87   130   136   am
    88   130   131    2
    89   169   168    2
    90   173   172    1
    91    82    83   ar
    92   189   191   ar
    93   165   164    1
    94   165   171   am
    95    18    17    1
    96   164   163    1
    97   164   167    1
    98   136   137    1
    99    17    16    2
   100    86    85    1
   101    86    87    2
   102     8     6    1
   103   212   214    1
   104   212   213    1
   105    85    84    1
   106    85    88    1
   107   144   142   ar
   108   144   146   ar
   109    79    81   ar
   110   142   141   ar
   111   192   191   ar
   112   168   167    1
   113   168   170   am
   114    90    89   ar
   115    83    81   ar
   116   171   172    1
   117   172   175    1
   118    16    15    1
   119     6     5    1
   120    88    89    1
   121   137   140    1
   122   137   138    1
   123    89    91   ar
   124   146   145   ar
   125   141   140    1
   126   141   143   ar
   127   158   157    2
   128     7     5    1
   129   138   139    2
   130   175   176    1
   131    15    14    1
   132   157   156    1
   133   147   148    1
   134     5     2    1
   135   145   143   ar
   136     2     1    1
   137     2     3    1
   138    14    13    1
   139    35    34    1
   140   148   151    1
   141   148   149    1
   142   151   152    1
   143    26    25    1
   144    26    27    1
   145    28    27    1
   146   156   155    1
   147   156   159    1
   148   152   153    1
   149   152   154    1
   150    25    24    1
   151    36    34    1
   152    13    10    1
   153   159   160    1
   154    34    33    1
   155     3     4    2
   156   149   150    2
   157    33    30    1
   158    24    21    1
   159    53    52    1
   160    20    21    1
   161    20    11   am
   162    10    11    1
   163    10     9    1
   164    21    22    1
   165    11    12    2
   166   160   161    1
   167   160   162    1
   168    30    31    1
   169    30    29    1
   170    52    51    1
   171    22    23    2
   172    32    31    2
   173    31    37   am
   174    50    51    1
   175    50    47    1
   176    37    38    1
   177    71    69    1
   178    64    62    1
   179    55    54    1
   180    55    56    1
   181    68    67    2
   182    63    62    1
   183    38    41    1
   184    38    39    1
   185    54    48   am
   186    62    59    1
   187    48    47    1
   188    48    49    2
   189    41    42    1
   190    47    46    1
   191    67    66    1
   192    69    70    1
   193    69    66    1
   194    72    70    1
   195    39    40    2
   196    56    57    2
   197    42    43    1
   198    66    65    1
   199    59    60    1
   200    59    58    1
   201    45    44    1
   202    60    61    2
   203    43    44    1
