@<TRIPOS>MOLECULE
tmp/1a7xB00.pdb
 154 152 0 0 0
SMALL
GASTEIGER

@<TRIPOS>ATOM
      1  N         22.9280    6.9650   21.2600 N.3    26  TYR26      -0.1241
      2  CA        23.1730    7.0080   22.6970 C.3    26  TYR26       0.1605
      3  C         22.8850    5.6440   23.3080 C.2    26  TYR26       0.2264
      4  O         22.0930    4.8630   22.7490 O.2    26  TYR26      -0.2867
      5  CB        22.2600    8.0790   23.3760 C.3    26  TYR26       0.0534
      6  CG        20.7470    7.7680   23.3990 C.ar   26  TYR26      -0.0201
      7  CD1       20.1640    7.0200   24.4370 C.ar   26  TYR26      -0.0009
      8  CD2       19.9270    8.2190   22.3690 C.ar   26  TYR26      -0.0009
      9  CE1       18.8090    6.7000   24.4300 C.ar   26  TYR26       0.0417
     10  CE2       18.5730    7.9060   22.3520 C.ar   26  TYR26       0.0417
     11  CZ        18.0340    7.1390   23.3690 C.ar   26  TYR26       0.1957
     12  OH        16.7000    6.8090   23.3110 O.3    26  TYR26      -0.2866
     13  N         19.1530    0.9870   30.3460 N.3    36  PHE36      -0.1227
     14  CA        17.7180    1.0780   30.2440 C.3    36  PHE36       0.1736
     15  C         17.2650    1.4420   28.8240 C.2    36  PHE36       0.2595
     16  O         16.0780    1.3250   28.5300 O.2    36  PHE36      -0.2718
     17  CB        17.1940    2.1180   31.2650 C.3    36  PHE36       0.0547
     18  CG        17.7740    3.5130   31.1210 C.ar   36  PHE36      -0.0202
     19  CD1       17.2400    4.4120   30.1920 C.ar   36  PHE36      -0.0042
     20  CD2       18.8430    3.8860   31.9250 C.ar   36  PHE36      -0.0042
     21  CE1       17.7920    5.6810   30.0600 C.ar   36  PHE36      -0.0003
     22  CE2       19.3790    5.1650   31.7830 C.ar   36  PHE36      -0.0003
     23  CZ        18.8610    6.0640   30.8600 C.ar   36  PHE36      -0.0000
     24  N         18.1410    1.9130   27.9360 N.am   37  ASP37      -0.1974
     25  CA        17.7230    2.3430   26.6040 C.3    37  ASP37       0.1709
     26  C         18.9230    2.4880   25.6950 C.2    37  ASP37       0.2293
     27  O         20.0200    2.8280   26.1580 O.2    37  ASP37      -0.2864
     28  CB        17.0360    3.7230   26.6290 C.3    37  ASP37       0.1436
     29  CG        16.2170    4.1300   25.4080 C.2    37  ASP37       0.3671
     30  OD1       16.0120    3.3060   24.5270 O.co2  37  ASP37      -0.2456
     31  OD2       15.7580    5.2650   25.3520 O.co2  37  ASP37      -0.2456
     32  N         18.1510   -0.0130   18.3380 N.3    42  ARG42      -0.1245
     33  CA        17.0490    0.0700   17.4010 C.3    42  ARG42       0.1563
     34  C         17.5410    0.2950   15.9820 C.2    42  ARG42       0.2260
     35  O         16.7480    0.2790   15.0500 O.2    42  ARG42      -0.2867
     36  CB        16.1020    1.2100   17.8080 C.3    42  ARG42       0.0307
     37  CG        15.3500    0.8670   19.0910 C.3    42  ARG42       0.0489
     38  CD        14.2830    1.9140   19.3320 C.3    42  ARG42       0.2205
     39  NE        14.8990    3.2150   19.5900 N.pl3  42  ARG42      -0.0865
     40  CZ        15.2710    3.6040   20.8250 C.cat  42  ARG42       0.5346
     41  NH1       15.0970    2.8070   21.8650 N.pl3  42  ARG42       0.1354
     42  NH2       15.8340    4.8020   21.0270 N.pl3  42  ARG42       0.1354
     43  N         18.9650    9.2200   17.1920 N.3    46  PHE46      -0.1241
     44  CA        18.0020   10.1290   17.7520 C.3    46  PHE46       0.1605
     45  C         18.3600   11.4960   17.1650 C.2    46  PHE46       0.2264
     46  O         19.5070   11.9210   17.1990 O.2    46  PHE46      -0.2867
     47  CB        18.1110   10.0950   19.2900 C.3    46  PHE46       0.0534
     48  CG        17.2680   11.1450   20.0100 C.ar   46  PHE46      -0.0203
     49  CD1       15.9080   11.3130   19.7230 C.ar   46  PHE46      -0.0042
     50  CD2       17.8910   11.9990   20.9370 C.ar   46  PHE46      -0.0042
     51  CE1       15.1820   12.3280   20.3490 C.ar   46  PHE46      -0.0003
     52  CE2       17.1560   13.0080   21.5570 C.ar   46  PHE46      -0.0003
     53  CZ        15.8090   13.1730   21.2610 C.ar   46  PHE46      -0.0000
     54  N         13.8510   21.0550   21.3900 N.3    53  GLN53      -0.1231
     55  CA        13.3820   19.8100   21.9590 C.3    53  GLN53       0.1698
     56  C         13.4930   19.8500   23.4820 C.2    53  GLN53       0.2592
     57  O         14.5190   20.2740   24.0240 O.2    53  GLN53      -0.2718
     58  CB        14.2140   18.6910   21.3820 C.3    53  GLN53       0.0381
     59  CG        13.7960   17.2900   21.7800 C.3    53  GLN53       0.0905
     60  CD        12.6010   16.7570   21.0190 C.2    53  GLN53       0.2608
     61  OE1       12.4430   17.0260   19.8330 O.2    53  GLN53      -0.2717
     62  NE2       11.7140   15.9710   21.6070 N.am   53  GLN53      -0.0878
     63  N         12.4550   19.4020   24.1850 N.am   54  GLU54      -0.1966
     64  CA        12.4850   19.3590   25.6280 C.3    54  GLU54       0.1733
     65  C         13.2870   18.1820   26.1230 C.2    54  GLU54       0.2616
     66  O         12.8580   17.0380   25.9860 O.2    54  GLU54      -0.2715
     67  CB        11.0990   19.2460   26.1650 C.3    54  GLU54       0.0429
     68  CG        10.7570   20.5880   26.7720 C.3    54  GLU54       0.1163
     69  CD         9.9840   20.4190   28.0670 C.2    54  GLU54       0.3649
     70  OE1       10.5430   19.8600   29.0210 O.co2  54  GLU54      -0.2457
     71  OE2        8.8220   20.8410   28.1070 O.co2  54  GLU54      -0.2457
     72  N         14.4800   18.3890   26.6400 N.am   55  VAL55      -0.1963
     73  CA        15.2850   17.2730   27.1030 C.3    55  VAL55       0.1727
     74  C         15.7130   17.5800   28.5270 C.2    55  VAL55       0.2616
     75  O         15.5870   18.7110   29.0150 O.2    55  VAL55      -0.2715
     76  CB        16.5650   17.0200   26.2070 C.3    55  VAL55       0.0290
     77  CG1       16.1250   16.6050   24.8120 C.3    55  VAL55       0.0023
     78  CG2       17.4590   18.2580   26.1270 C.3    55  VAL55       0.0023
     79  N         16.1430   16.5640   29.2570 N.am   56  ILE56      -0.1977
     80  CA        16.6800   16.7900   30.5810 C.3    56  ILE56       0.1596
     81  C         17.8970   17.7380   30.4610 C.2    56  ILE56       0.2287
     82  O         18.6790   17.7210   29.4960 O.2    56  ILE56      -0.2864
     83  CB        17.0520   15.4250   31.2030 C.3    56  ILE56       0.0276
     84  CG1       18.0060   14.6170   30.3550 C.3    56  ILE56       0.0022
     85  CG2       15.7540   14.6870   31.4080 C.3    56  ILE56       0.0022
     86  CD1       18.5290   13.3290   30.9740 C.3    56  ILE56       0.0001
     87  N         21.4420   16.7110   29.4630 N.3    59  TRP59      -0.1241
     88  CA        21.6680   16.3170   28.0800 C.3    59  TRP59       0.1605
     89  C         21.9160   17.5420   27.2430 C.2    59  TRP59       0.2264
     90  O         22.8340   17.5690   26.4260 O.2    59  TRP59      -0.2867
     91  CB        20.4480   15.5550   27.5710 C.3    59  TRP59       0.0550
     92  CG        20.5350   15.0630   26.1470 C.ar   59  TRP59       0.0003
     93  CD1       20.1220   15.8460   25.0960 C.ar   59  TRP59       0.0946
     94  CD2       21.0100   13.8490   25.7570 C.ar   59  TRP59       0.0152
     95  NE1       20.3100   15.1070   24.0390 N.ar   59  TRP59      -0.2442
     96  CE2       20.8410   13.9230   24.3660 C.ar   59  TRP59       0.0810
     97  CE3       21.5090   12.7050   26.3610 C.ar   59  TRP59       0.0012
     98  CZ2       21.1630   12.8590   23.5320 C.ar   59  TRP59       0.0191
     99  CZ3       21.8620   11.6450   25.5240 C.ar   59  TRP59       0.0001
    100  CH2       21.6880   11.7150   24.1320 C.ar   59  TRP59       0.0015
    101  N         18.3760   15.6020   35.6720 N.3    81  ALA81      -0.1231
    102  CA        17.7790   14.5430   34.9000 C.3    81  ALA81       0.1694
    103  C         16.3290   14.4050   35.3570 C.2    81  ALA81       0.2592
    104  O         15.6170   15.4030   35.2100 O.2    81  ALA81      -0.2718
    105  CB        18.5790   13.2740   35.1450 C.3    81  ALA81       0.0304
    106  N         15.8210   13.2890   35.9050 N.am   82  TYR82      -0.1976
    107  CA        14.3950   13.1610   36.2020 C.3    82  TYR82       0.1639
    108  C         14.0520   13.3740   37.6690 C.2    82  TYR82       0.2290
    109  O         12.9480   13.0910   38.1520 O.2    82  TYR82      -0.2864
    110  CB        13.9280   11.7830   35.7510 C.3    82  TYR82       0.0560
    111  CG        13.9830   11.6210   34.2370 C.ar   82  TYR82      -0.0198
    112  CD1       12.9470   12.1330   33.4420 C.ar   82  TYR82      -0.0009
    113  CD2       15.1100   11.0550   33.6360 C.ar   82  TYR82      -0.0009
    114  CE1       13.0340   12.0640   32.0560 C.ar   82  TYR82       0.0417
    115  CE2       15.2030   10.9900   32.2500 C.ar   82  TYR82       0.0417
    116  CZ        14.1590   11.4940   31.4820 C.ar   82  TYR82       0.1957
    117  OH        14.2630   11.4360   30.1140 O.3    82  TYR82      -0.2866
    118  N         11.0160    8.5150   35.7640 N.3    87  HIS87      -0.1241
    119  CA        10.1790    8.5540   34.5840 C.3    87  HIS87       0.1621
    120  C          9.5150    7.2000   34.6410 C.2    87  HIS87       0.2264
    121  O         10.1870    6.2120   34.3360 O.2    87  HIS87      -0.2867
    122  CB        11.0330    8.7100   33.3030 C.3    87  HIS87       0.0745
    123  CG        10.1870    8.9050   32.0490 C.ar   87  HIS87       0.0817
    124  ND1        9.5740   10.0100   31.6350 N.ar   87  HIS87      -0.2268
    125  CD2        9.8910    7.9210   31.1250 C.ar   87  HIS87       0.1154
    126  CE1        8.9300    9.7400   30.5170 C.ar   87  HIS87       0.1986
    127  NE2        9.1210    8.4730   30.2220 N.ar   87  HIS87      -0.2212
    128  N         10.7140    3.4600   33.4790 N.3    90  ILE90      -0.1231
    129  CA        12.0400    3.4320   32.8820 C.3    90  ILE90       0.1692
    130  C         13.0700    3.9700   33.8780 C.2    90  ILE90       0.2591
    131  O         14.0780    3.3090   34.1130 O.2    90  ILE90      -0.2718
    132  CB        12.0700    4.2860   31.5920 C.3    90  ILE90       0.0266
    133  CG1       11.0070    3.8200   30.5920 C.3    90  ILE90       0.0019
    134  CG2       13.4680    4.1610   30.9710 C.3    90  ILE90       0.0020
    135  CD1       10.8260    4.7420   29.3790 C.3    90  ILE90       0.0001
    136  N         12.9230    5.1430   34.4950 N.am   91  ILE91      -0.1980
    137  CA        13.9540    5.6800   35.3750 C.3    91  ILE91       0.1595
    138  C         13.3490    5.7140   36.7720 C.2    91  ILE91       0.2287
    139  O         12.2740    6.2900   36.9630 O.2    91  ILE91      -0.2864
    140  CB        14.3580    7.1230   34.9480 C.3    91  ILE91       0.0276
    141  CG1       14.8410    7.1600   33.5050 C.3    91  ILE91       0.0022
    142  CG2       15.4060    7.6440   35.9290 C.3    91  ILE91       0.0022
    143  CD1       16.0900    6.3340   33.2300 C.3    91  ILE91       0.0001
    144  N         25.1900    8.4130   30.2060 N.3    99  PHE99      -0.1241
    145  CA        24.8790    8.2610   28.7970 C.3    99  PHE99       0.1605
    146  C         26.1530    8.1320   27.9770 C.2    99  PHE99       0.2264
    147  O         27.0580    8.9590   28.1180 O.2    99  PHE99      -0.2867
    148  CB        24.0920    9.4740   28.2400 C.3    99  PHE99       0.0534
    149  CG        22.6020    9.4590   28.5440 C.ar   99  PHE99      -0.0203
    150  CD1       21.7250    8.7860   27.6910 C.ar   99  PHE99      -0.0042
    151  CD2       22.1070   10.1070   29.6680 C.ar   99  PHE99      -0.0042
    152  CE1       20.3610    8.7750   27.9760 C.ar   99  PHE99      -0.0003
    153  CE2       20.7390   10.0910   29.9440 C.ar   99  PHE99      -0.0003
    154  CZ        19.8630    9.4260   29.1000 C.ar   99  PHE99      -0.0000
@<TRIPOS>BOND
     1    35    34    2
     2    34    33    1
     3    45    46    2
     4    45    44    1
     5    43    44    1
     6    33    36    1
     7    33    32    1
     8    44    47    1
     9    36    37    1
    10    37    38    1
    11    47    48    1
    12    38    39    1
    13    39    40    2
    14    49    48   ar
    15    49    51   ar
    16    61    60    2
    17    48    50   ar
    18    51    53   ar
    19    40    42    1
    20    40    41    1
    21    50    52   ar
    22    60    62   am
    23    60    59    1
    24     1     2    1
    25    53    52   ar
    26    58    59    1
    27    58    55    1
    28    54    55    1
    29    55    56    1
    30    10     8   ar
    31    10    11   ar
    32     8     6   ar
    33     2     3    1
    34     2     5    1
    35     4     3    2
    36    12    11    1
    37    11     9   ar
    38     5     6    1
    39     6     7   ar
    40    56    57    2
    41    56    63   am
    42    98   100   ar
    43    98    96   ar
    44    95    96   ar
    45    95    93   ar
    46   100    99   ar
    47    63    64    1
    48    96    94   ar
    49     9     7   ar
    50    30    29   ar
    51    77    76    1
    52    93    92   ar
    53    31    29   ar
    54    29    28    1
    55    99    97   ar
    56    64    65    1
    57    64    67    1
    58    26    27    2
    59    26    25    1
    60    94    92   ar
    61    94    97   ar
    62    66    65    2
    63    65    72   am
    64    78    76    1
    65    92    91    1
    66    67    68    1
    67    76    73    1
    68    90    89    2
    69    25    28    1
    70    25    24    1
    71    72    73    1
    72    68    69    1
    73    73    74    1
    74    89    88    1
    75    91    88    1
    76   150   152   ar
    77   150   149   ar
    78    24    15   am
    79   152   154   ar
    80   146   147    2
    81   146   145    1
    82    69    71   ar
    83    69    70   ar
    84    88    87    1
    85   148   149    1
    86   148   145    1
    87    74    75    2
    88    74    79   am
    89    16    15    2
    90   149   151   ar
    91   145   144    1
    92    15    14    1
    93   154   153   ar
    94    79    80    1
    95   135   133    1
    96    82    81    2
    97   151   153   ar
    98    21    19   ar
    99    21    23   ar
   100   117   116    1
   101    19    18   ar
   102   127   126   ar
   103   127   125   ar
   104    14    13    1
   105    14    17    1
   106    84    86    1
   107    84    83    1
   108    81    80    1
   109   126   124   ar
   110    80    83    1
   111   133   132    1
   112    23    22   ar
   113   134   132    1
   114    18    17    1
   115    18    20   ar
   116   125   123   ar
   117    83    85    1
   118   116   114   ar
   119   116   115   ar
   120   132   129    1
   121   124   123   ar
   122    22    20   ar
   123   123   122    1
   124   114   112   ar
   125   115   113   ar
   126   129   128    1
   127   129   130    1
   128   143   141    1
   129   122   119    1
   130   112   111   ar
   131   141   140    1
   132   113   111   ar
   133   130   131    2
   134   130   136   am
   135   111   110    1
   136   121   120    2
   137   136   137    1
   138   119   120    1
   139   119   118    1
   140   102   105    1
   141   102   103    1
   142   102   101    1
   143   140   137    1
   144   140   142    1
   145   104   103    2
   146   103   106   am
   147   137   138    1
   148   110   107    1
   149   106   107    1
   150   107   108    1
   151   138   139    2
   152   108   109    2
