@<TRIPOS>MOLECULE
tmp/1a7xA00.pdb
 95 95 0 0 0
SMALL
GASTEIGER

@<TRIPOS>ATOM
      1  N          8.3390   -0.1130   25.8140 N.3    53  GLN53      -0.1231
      2  CA         8.0570    1.3270   25.9240 C.3    53  GLN53       0.1698
      3  C          9.0890    2.1970   25.2060 C.2    53  GLN53       0.2592
      4  O          9.5660    3.2230   25.6860 O.2    53  GLN53      -0.2718
      5  CB         7.9830    1.7220   27.4100 C.3    53  GLN53       0.0381
      6  CG         7.0640    0.7980   28.2320 C.3    53  GLN53       0.0905
      7  CD         6.9550    1.1650   29.7080 C.2    53  GLN53       0.2608
      8  OE1        5.8760    1.4870   30.1520 O.2    53  GLN53      -0.2717
      9  NE2        7.9110    1.2370   30.6040 N.am   53  GLN53      -0.0878
     10  N          9.4860    1.7610   24.0180 N.am   54  GLU54      -0.1979
     11  CA        10.4850    2.4860   23.2770 C.3    54  GLU54       0.1602
     12  C         10.0660    2.9460   21.8850 C.2    54  GLU54       0.2287
     13  O         10.9320    3.3730   21.1330 O.2    54  GLU54      -0.2864
     14  CB        11.7370    1.6220   23.1880 C.3    54  GLU54       0.0415
     15  CG        11.6480    0.3780   22.2940 C.3    54  GLU54       0.1163
     16  CD        12.9720   -0.3880   22.1500 C.2    54  GLU54       0.3649
     17  OE1       14.0470    0.1880   22.2730 O.co2  54  GLU54      -0.2457
     18  OE2       12.9440   -1.5830   21.9170 O.co2  54  GLU54      -0.2457
     19  N          6.4780    4.7640   19.4540 N.3    56  ILE56      -0.1245
     20  CA         5.1720    5.3650   19.5520 C.3    56  ILE56       0.1561
     21  C          4.1200    4.2820   19.5220 C.2    56  ILE56       0.2260
     22  O          4.3590    3.1860   19.0180 O.2    56  ILE56      -0.2867
     23  CB         4.9170    6.3730   18.3950 C.3    56  ILE56       0.0252
     24  CG1        5.2240    5.8140   17.0150 C.3    56  ILE56       0.0019
     25  CG2        5.7010    7.6080   18.7730 C.3    56  ILE56       0.0019
     26  CD1        4.5430    6.6020   15.8920 C.3    56  ILE56       0.0001
     27  N         -2.6190   11.3210   15.1380 N.3    78  PRO78      -0.2102
     28  CA        -1.6510   12.0130   15.9930 C.3    78  PRO78       0.1504
     29  C         -1.7040   11.4670   17.4160 C.2    78  PRO78       0.2576
     30  O         -0.6710   11.3320   18.0770 O.2    78  PRO78      -0.2718
     31  CB        -2.0220   13.4780   15.9400 C.3    78  PRO78       0.0282
     32  CG        -2.7980   13.6090   14.6700 C.3    78  PRO78       0.0208
     33  CD        -3.5210   12.2850   14.5240 C.3    78  PRO78       0.0893
     34  N         -2.8770   11.0990   17.9290 N.am   79  ASP79      -0.1960
     35  CA        -2.9390   10.5870   19.2910 C.3    79  ASP79       0.1840
     36  C         -2.2700    9.2320   19.4770 C.2    79  ASP79       0.2622
     37  O         -2.1450    8.7980   20.6250 O.2    79  ASP79      -0.2715
     38  CB        -4.4040   10.5310   19.7250 C.3    79  ASP79       0.1450
     39  CG        -5.2980    9.6640   18.8630 C.2    79  ASP79       0.3671
     40  OD1       -5.3430    9.8780   17.6550 O.co2  79  ASP79      -0.2456
     41  OD2       -5.9540    8.7730   19.4000 O.co2  79  ASP79      -0.2456
     42  N         -1.8640    8.5380   18.3890 N.am   80  TYR80      -0.1960
     43  CA        -1.1510    7.2730   18.4780 C.3    80  TYR80       0.1771
     44  C          0.2860    7.5030   18.0120 C.2    80  TYR80       0.2619
     45  O          1.0120    6.5360   17.7540 O.2    80  TYR80      -0.2715
     46  CB        -1.7780    6.2100   17.5790 C.3    80  TYR80       0.0574
     47  CG        -2.7740    5.3210   18.2780 C.ar   80  TYR80      -0.0198
     48  CD1       -3.8100    5.8930   19.0280 C.ar   80  TYR80      -0.0009
     49  CD2       -2.6180    3.9410   18.2260 C.ar   80  TYR80      -0.0009
     50  CE1       -4.6870    5.0850   19.7450 C.ar   80  TYR80       0.0417
     51  CE2       -3.4950    3.1250   18.9460 C.ar   80  TYR80       0.0417
     52  CZ        -4.5080    3.7050   19.7110 C.ar   80  TYR80       0.1957
     53  OH        -5.3020    2.9180   20.5130 O.3    80  TYR80      -0.2866
     54  N          0.7180    8.7650   17.8590 N.am   81  ALA81      -0.1963
     55  CA         2.0500    9.0850   17.3510 C.3    81  ALA81       0.1728
     56  C          2.6460   10.1890   18.2200 C.2    81  ALA81       0.2616
     57  O          2.8790    9.9250   19.4010 O.2    81  ALA81      -0.2715
     58  CB         1.9370    9.5300   15.8730 C.3    81  ALA81       0.0334
     59  N          2.8730   11.4140   17.7530 N.am   82  TYR82      -0.1960
     60  CA         3.5510   12.4360   18.5260 C.3    82  TYR82       0.1771
     61  C          2.6040   13.5080   19.0160 C.2    82  TYR82       0.2620
     62  O          2.9890   14.5070   19.6520 O.2    82  TYR82      -0.2715
     63  CB         4.6760   13.0470   17.6710 C.3    82  TYR82       0.0574
     64  CG         5.7710   12.0360   17.4070 C.ar   82  TYR82      -0.0198
     65  CD1        6.7760   11.8170   18.3560 C.ar   82  TYR82      -0.0009
     66  CD2        5.7490   11.3080   16.2230 C.ar   82  TYR82      -0.0009
     67  CE1        7.7530   10.8400   18.1310 C.ar   82  TYR82       0.0417
     68  CE2        6.7160   10.3260   15.9900 C.ar   82  TYR82       0.0417
     69  CZ         7.7090   10.1110   16.9440 C.ar   82  TYR82       0.1957
     70  OH         8.6030    9.0990   16.7020 O.3    82  TYR82      -0.2866
     71  N          1.3210   13.2890   18.7750 N.am   83  GLY83      -0.1954
     72  CA         0.2710   14.1360   19.2870 C.3    83  GLY83       0.1869
     73  C          0.3890   15.6120   18.9510 C.2    83  GLY83       0.2309
     74  O          0.8270   16.0760   17.8790 O.2    83  GLY83      -0.2863
     75  N          2.4810   17.6900   20.2510 N.3    85  THR85      -0.1203
     76  CA         3.8160   18.3100   20.3020 C.3    85  THR85       0.1994
     77  C          4.5870   18.1390   19.0170 C.2    85  THR85       0.2618
     78  O          5.3850   18.9900   18.6220 O.2    85  THR85      -0.2717
     79  CB         4.7040   17.7250   21.4340 C.3    85  THR85       0.1784
     80  OG1        4.0020   17.9930   22.6480 O.3    85  THR85      -0.2211
     81  CG2        6.0790   18.3670   21.5890 C.3    85  THR85       0.0376
     82  N          4.3660   16.9840   18.4010 N.am   86  GLY86      -0.1942
     83  CA         5.1160   16.6200   17.2180 C.3    86  GLY86       0.2014
     84  C          6.4790   16.2450   17.7410 C.2    86  GLY86       0.2638
     85  O          6.7020   15.9530   18.9420 O.2    86  GLY86      -0.2714
     86  N          7.4170   16.2360   16.8280 N.am   87  HIS87      -0.1973
     87  CA         8.7880   15.9880   17.2080 C.3    87  HIS87       0.1656
     88  C          9.4250   17.1660   16.5080 C.2    87  HIS87       0.2291
     89  O          9.6490   17.0810   15.2980 O.2    87  HIS87      -0.2864
     90  CB         9.3130   14.6460   16.6510 C.3    87  HIS87       0.0771
     91  CG        10.7960   14.3590   16.8910 C.ar   87  HIS87       0.0820
     92  ND1       11.5450   13.5100   16.1890 N.ar   87  HIS87      -0.2267
     93  CD2       11.6310   14.9730   17.7920 C.ar   87  HIS87       0.1154
     94  CE1       12.7810   13.6020   16.6200 C.ar   87  HIS87       0.1986
     95  NE2       12.8230   14.4840   17.5730 N.ar   87  HIS87      -0.2212
@<TRIPOS>BOND
     1    33    32    1
     2    33    27    1
     3    32    31    1
     4    27    28    1
     5    89    88    2
     6    58    55    1
     7    26    24    1
     8    31    28    1
     9    68    66   ar
    10    68    69   ar
    11    28    29    1
    12    92    94   ar
    13    92    91   ar
    14    66    64   ar
    15    88    87    1
    16    94    95   ar
    17    90    91    1
    18    90    87    1
    19    70    69    1
    20    86    87    1
    21    86    84   am
    22    91    93   ar
    23    69    67   ar
    24    24    23    1
    25    83    84    1
    26    83    82    1
    27    55    54    1
    28    55    56    1
    29    64    63    1
    30    64    65   ar
    31    29    34   am
    32    29    30    2
    33    95    93   ar
    34    46    47    1
    35    46    43    1
    36    40    39   ar
    37    63    60    1
    38    84    85    2
    39    59    56   am
    40    59    60    1
    41    45    44    2
    42    54    44   am
    43    74    73    2
    44    34    35    1
    45    44    43    1
    46    67    65   ar
    47    56    57    2
    48    49    47   ar
    49    49    51   ar
    50    47    48   ar
    51    42    43    1
    52    42    36   am
    53    23    25    1
    54    23    20    1
    55    82    77   am
    56    60    61    1
    57    78    77    2
    58    71    61   am
    59    71    72    1
    60    39    41   ar
    61    39    38    1
    62    51    52   ar
    63    73    72    1
    64    61    62    2
    65    77    76    1
    66    22    21    2
    67    48    50   ar
    68    35    36    1
    69    35    38    1
    70    19    20    1
    71    36    37    2
    72    21    20    1
    73    52    50   ar
    74    52    53    1
    75    75    76    1
    76    76    79    1
    77    13    12    2
    78    79    81    1
    79    79    80    1
    80    12    11    1
    81    18    16   ar
    82    16    17   ar
    83    16    15    1
    84    15    14    1
    85    14    11    1
    86    11    10    1
    87    10     3   am
    88     3     4    2
    89     3     2    1
    90     1     2    1
    91     2     5    1
    92     5     6    1
    93     6     7    1
    94     7     8    2
    95     7     9   am
