@<TRIPOS>MOLECULE
tmp/1a80A00.pdb
 239 236 0 0 0
SMALL
GASTEIGER

@<TRIPOS>ATOM
      1  N          8.2430    6.1460   15.2870 N.3    19  GLY19      -0.1210
      2  CA         8.9250    5.9090   16.5610 C.3    19  GLY19       0.1956
      3  C         10.3360    6.4820   16.5660 C.2    19  GLY19       0.2612
      4  O         11.0230    6.4570   15.5350 O.2    19  GLY19      -0.2717
      5  N         10.7730    7.0080   17.7300 N.am   20  VAL20      -0.1965
      6  CA        12.1060    7.6100   17.8570 C.3    20  VAL20       0.1727
      7  C         13.1110    6.9000   18.7090 C.2    20  VAL20       0.2616
      8  O         14.1260    7.4800   19.0880 O.2    20  VAL20      -0.2715
      9  CB        12.1350    9.0920   18.1220 C.3    20  VAL20       0.0290
     10  CG1       11.7030    9.8460   16.8720 C.3    20  VAL20       0.0023
     11  CG2       11.2430    9.4420   19.3090 C.3    20  VAL20       0.0023
     12  N         12.8260    5.6570   19.0110 N.am   21  PHE21      -0.1974
     13  CA        13.7350    4.8660   19.7790 C.3    21  PHE21       0.1639
     14  C         14.9990    4.6760   18.9740 C.2    21  PHE21       0.2290
     15  O         14.9580    4.3440   17.7890 O.2    21  PHE21      -0.2864
     16  CB        13.0920    3.5120   20.1320 C.3    21  PHE21       0.0560
     17  CG        14.0590    2.6150   20.8390 C.ar   21  PHE21      -0.0200
     18  CD1       14.7490    3.0930   21.9550 C.ar   21  PHE21      -0.0042
     19  CD2       14.2550    1.2950   20.4300 C.ar   21  PHE21      -0.0042
     20  CE1       15.6600    2.2880   22.6360 C.ar   21  PHE21      -0.0003
     21  CE2       15.1520    0.4710   21.1080 C.ar   21  PHE21      -0.0003
     22  CZ        15.8560    0.9750   22.2030 C.ar   21  PHE21      -0.0000
     23  N          6.0300    8.5790   18.5210 N.3    44  ASP44      -0.1239
     24  CA         6.1670    7.7940   19.7350 C.3    44  ASP44       0.1674
     25  C          7.5560    7.9650   20.3520 C.2    44  ASP44       0.2266
     26  O          8.5730    7.5120   19.8200 O.2    44  ASP44      -0.2867
     27  CB         5.7130    6.3340   19.5370 C.3    44  ASP44       0.1410
     28  CG         5.7760    5.4370   20.7530 C.2    44  ASP44       0.3668
     29  OD1        6.8080    4.9290   21.1560 O.co2  44  ASP44      -0.2456
     30  OD2        4.6040    5.2290   21.3000 O.co2  44  ASP44      -0.2456
     31  N         14.0880    7.8950   26.1760 N.3    49  TYR49      -0.1241
     32  CA        14.7820    7.9840   24.8910 C.3    49  TYR49       0.1605
     33  C         15.7380    9.1580   24.8630 C.2    49  TYR49       0.2264
     34  O         16.6440    9.2200   24.0240 O.2    49  TYR49      -0.2867
     35  CB        13.8690    8.0400   23.6800 C.3    49  TYR49       0.0534
     36  CG        12.9390    6.8700   23.5760 C.ar   49  TYR49      -0.0201
     37  CD1       13.1730    5.6810   24.2660 C.ar   49  TYR49      -0.0009
     38  CD2       11.8430    6.9370   22.7160 C.ar   49  TYR49      -0.0009
     39  CE1       12.2950    4.6010   24.1460 C.ar   49  TYR49       0.0417
     40  CE2       10.9520    5.8740   22.5930 C.ar   49  TYR49       0.0417
     41  CZ        11.1790    4.7030   23.3130 C.ar   49  TYR49       0.1957
     42  OH        10.3150    3.6450   23.1810 O.3    49  TYR49      -0.2866
     43  N          6.2150    8.3230   27.5850 N.3    74  LYS74      -0.1245
     44  CA         6.1410    7.2570   28.5700 C.3    74  LYS74       0.1561
     45  C          6.8280    7.5390   29.8990 C.2    74  LYS74       0.2260
     46  O          7.8280    8.2540   29.9850 O.2    74  LYS74      -0.2867
     47  CB         6.7040    5.9420   28.0250 C.3    74  LYS74       0.0271
     48  CG         6.2560    5.5650   26.6160 C.3    74  LYS74       0.0035
     49  CD         6.8390    4.2330   26.1580 C.3    74  LYS74       0.0206
     50  CE         6.5960    3.9130   24.6860 C.3    74  LYS74       0.1093
     51  NZ         7.4100    4.7290   23.7750 N.3    74  LYS74      -0.1314
     52  N          5.7470    2.7170   31.0440 N.3   107  HIS107     -0.1226
     53  CA         6.6900    2.0240   30.2160 C.3   107  HIS107      0.1752
     54  C          6.8280    0.5030   30.4240 C.2   107  HIS107      0.2596
     55  O          6.7870   -0.2630   29.4530 O.2   107  HIS107     -0.2718
     56  CB         8.0270    2.7500   30.2050 C.3   107  HIS107      0.0759
     57  CG         8.8030    2.5470   28.9480 C.ar  107  HIS107      0.0818
     58  ND1        9.5770    3.5630   28.4120 N.ar  107  HIS107     -0.2268
     59  CD2        8.8920    1.4620   28.1290 C.ar  107  HIS107      0.1154
     60  CE1       10.1330    3.0700   27.3120 C.ar  107  HIS107      0.1986
     61  NE2        9.7390    1.8150   27.1130 N.ar  107  HIS107     -0.2212
     62  N          6.9930    0.0520   31.6750 N.am  108  TRP108     -0.1976
     63  CA         7.1460   -1.3780   32.0050 C.3   108  TRP108      0.1640
     64  C          6.4300   -1.6670   33.3100 C.2   108  TRP108      0.2290
     65  O          6.3480   -0.7910   34.1510 O.2   108  TRP108     -0.2864
     66  CB         8.6230   -1.7440   32.2330 C.3   108  TRP108      0.0576
     67  CG         9.4400   -1.7950   31.0010 C.ar  108  TRP108      0.0006
     68  CD1       10.1600   -0.7820   30.4720 C.ar  108  TRP108      0.0946
     69  CD2        9.6510   -2.9360   30.1500 C.ar  108  TRP108      0.0152
     70  NE1       10.7980   -1.1940   29.3410 N.ar  108  TRP108     -0.2442
     71  CE2       10.4900   -2.5100   29.1070 C.ar  108  TRP108      0.0810
     72  CE3        9.1910   -4.2490   30.1620 C.ar  108  TRP108      0.0012
     73  CZ2       10.8950   -3.3840   28.0960 C.ar  108  TRP108      0.0191
     74  CZ3        9.5860   -5.1090   29.1620 C.ar  108  TRP108      0.0001
     75  CH2       10.4290   -4.6800   28.1410 C.ar  108  TRP108      0.0015
     76  N          2.3630   -0.2560   28.8470 N.3   138  SER138     -0.1202
     77  CA         3.2500   -0.8730   27.9020 C.3   138  SER138      0.2020
     78  C          3.8900   -2.0730   28.5510 C.2   138  SER138      0.2618
     79  O          4.3190   -2.0070   29.7040 O.2   138  SER138     -0.2717
     80  CB         4.3390    0.1120   27.5000 C.3   138  SER138      0.2103
     81  OG         5.3240   -0.5150   26.7020 O.3   138  SER138     -0.2182
     82  N          3.9510   -3.1730   27.8130 N.am  139  ASN139     -0.1974
     83  CA         4.6000   -4.3650   28.3040 C.3   139  ASN139      0.1688
     84  C          3.9220   -5.0530   29.4940 C.2   139  ASN139      0.2292
     85  O          4.5560   -5.7620   30.2610 O.2   139  ASN139     -0.2864
     86  CB         6.0850   -4.0800   28.5710 C.3   139  ASN139      0.1181
     87  CG         6.8710   -3.7280   27.3090 C.2   139  ASN139      0.2629
     88  OD1        6.8110   -4.4640   26.3100 O.2   139  ASN139     -0.2716
     89  ND2        7.6360   -2.6260   27.3600 N.am  139  ASN139     -0.0877
     90  N          0.9470   -1.3200   24.4980 N.3   160  GLN160     -0.1245
     91  CA         2.0500   -1.3630   23.5750 C.3   160  GLN160      0.1566
     92  C          3.0410   -2.4680   23.9630 C.2   160  GLN160      0.2260
     93  O          3.6880   -2.4050   25.0160 O.2   160  GLN160     -0.2867
     94  CB         2.7000    0.0170   23.4610 C.3   160  GLN160      0.0367
     95  CG         4.0170   -0.0260   22.6860 C.3   160  GLN160      0.0905
     96  CD         4.6400    1.3330   22.5360 C.2   160  GLN160      0.2608
     97  OE1        5.8610    1.4670   22.5130 O.2   160  GLN160     -0.2717
     98  NE2        3.8060    2.3570   22.4590 N.am  160  GLN160     -0.0878
     99  N          5.3590   -2.9700   19.0800 N.3   186  TRP186     -0.1227
    100  CA         6.6580   -2.3630   19.1080 C.3   186  TRP186      0.1737
    101  C          7.6220   -3.3180   18.4770 C.2   186  TRP186      0.2596
    102  O          7.3690   -4.5260   18.5000 O.2   186  TRP186     -0.2718
    103  CB         7.1360   -1.6770   20.4060 C.3   186  TRP186      0.0564
    104  CG         7.4220   -2.5240   21.6190 C.ar  186  TRP186      0.0003
    105  CD1        6.6400   -2.5610   22.7240 C.ar  186  TRP186      0.0946
    106  CD2        8.6270   -3.2460   21.9640 C.ar  186  TRP186      0.0152
    107  NE1        7.2180   -3.3220   23.6950 N.ar  186  TRP186     -0.2442
    108  CE2        8.4420   -3.7470   23.2700 C.ar  186  TRP186      0.0810
    109  CE3        9.8190   -3.5410   21.3040 C.ar  186  TRP186      0.0012
    110  CZ2        9.3990   -4.5330   23.9110 C.ar  186  TRP186      0.0191
    111  CZ3       10.7650   -4.3300   21.9380 C.ar  186  TRP186      0.0001
    112  CH2       10.5550   -4.8180   23.2380 C.ar  186  TRP186      0.0015
    113  N          8.6880   -2.8030   17.8810 N.am  187  GLY187     -0.1943
    114  CA         9.6170   -3.6710   17.1970 C.3   187  GLY187      0.1998
    115  C          8.8450   -4.4520   16.1310 C.2   187  GLY187      0.2481
    116  O          9.0390   -5.6500   15.9790 O.2   187  GLY187     -0.2729
    117  N          7.9270   -3.7520   15.4250 N.am  188  PRO188     -0.2715
    118  CA         7.0480   -4.3410   14.4000 C.3   188  PRO188      0.1536
    119  C          7.7760   -5.0580   13.2330 C.2   188  PRO188      0.2598
    120  O          7.2290   -5.9660   12.5890 O.2   188  PRO188     -0.2715
    121  CB         6.2380   -3.1640   13.8520 C.3   188  PRO188      0.0310
    122  CG         7.0440   -1.8950   14.1690 C.3   188  PRO188      0.0237
    123  CD         8.1010   -2.2860   15.1980 C.3   188  PRO188      0.0939
    124  N          8.9950   -4.6060   12.9560 N.am  189  LEU189     -0.1978
    125  CA         9.8490   -5.1380   11.9040 C.3   189  LEU189      0.1596
    126  C         10.9990   -5.9540   12.5040 C.2   189  LEU189      0.2287
    127  O         12.0730   -5.9430   11.9480 O.2   189  LEU189     -0.2864
    128  CB        10.4450   -4.0260   11.0140 C.3   189  LEU189      0.0297
    129  CG         9.4030   -3.1230   10.3440 C.3   189  LEU189      0.0022
    130  CD1       10.1000   -1.9280    9.7050 C.3   189  LEU189      0.0001
    131  CD2        8.6350   -3.9030    9.2800 C.3   189  LEU189      0.0001
    132  N         12.9060   -5.3450   14.8650 N.3   191  GLN191     -0.1231
    133  CA        14.0260   -4.5460   15.3130 C.3   191  GLN191      0.1698
    134  C         15.2890   -4.8920   14.5760 C.2   191  GLN191      0.2592
    135  O         16.3860   -4.5890   15.0350 O.2   191  GLN191     -0.2718
    136  CB        14.2630   -4.6530   16.8210 C.3   191  GLN191      0.0381
    137  CG        13.1080   -4.0630   17.6370 C.3   191  GLN191      0.0905
    138  CD        13.4100   -4.0940   19.1130 C.2   191  GLN191      0.2608
    139  OE1       14.0340   -5.0380   19.6090 O.2   191  GLN191     -0.2717
    140  NE2       13.0110   -3.0420   19.8140 N.am  191  GLN191     -0.0878
    141  N         15.1290   -5.5410   13.4230 N.am  192  GLY192     -0.1957
    142  CA        16.2700   -5.9240   12.6100 C.3   192  GLY192      0.1869
    143  C         17.1470   -6.9510   13.2960 C.2   192  GLY192      0.2309
    144  O         18.3550   -7.0260   13.0310 O.2   192  GLY192     -0.2863
    145  N         12.5400  -10.2390    6.5510 N.3   197  PHE197     -0.1241
    146  CA        12.2920   -9.9240    5.1530 C.3   197  PHE197      0.1605
    147  C         12.5710  -11.0830    4.1880 C.2   197  PHE197      0.2264
    148  O         11.9550  -11.1870    3.1300 O.2   197  PHE197     -0.2867
    149  CB        12.8680   -8.5510    4.7520 C.3   197  PHE197      0.0534
    150  CG        12.4340   -7.4450    5.7010 C.ar  197  PHE197     -0.0203
    151  CD1       11.1130   -7.3730    6.1490 C.ar  197  PHE197     -0.0042
    152  CD2       13.3240   -6.4560    6.1240 C.ar  197  PHE197     -0.0042
    153  CE1       10.6960   -6.3690    7.0260 C.ar  197  PHE197     -0.0003
    154  CE2       12.9270   -5.4350    6.9930 C.ar  197  PHE197     -0.0003
    155  CZ        11.6070   -5.3990    7.4480 C.ar  197  PHE197     -0.0000
    156  N          9.2090   -5.0940    3.8000 N.3   214  ALA214     -0.1245
    157  CA         8.9490   -4.2610    4.9500 C.3   214  ALA214      0.1562
    158  C          7.5000   -3.8170    4.9610 C.2   214  ALA214      0.2260
    159  O          6.8310   -3.8090    5.9990 O.2   214  ALA214     -0.2867
    160  CB         9.8950   -3.0650    4.9910 C.3   214  ALA214      0.0290
    161  N          4.4090    1.8570   14.4590 N.3   229  PHE229     -0.1227
    162  CA         5.2040    3.0490   14.3010 C.3   229  PHE229      0.1725
    163  C          6.6570    2.6870   14.1830 C.2   229  PHE229      0.2475
    164  O          7.4440    2.8110   15.1220 O.2   229  PHE229     -0.2730
    165  CB         4.9300    4.1030   15.3980 C.3   229  PHE229      0.0547
    166  CG         4.5120    3.4540   16.6930 C.ar  229  PHE229     -0.0202
    167  CD1        3.1820    3.0800   16.8840 C.ar  229  PHE229     -0.0042
    168  CD2        5.4350    3.1880   17.7040 C.ar  229  PHE229     -0.0042
    169  CE1        2.7650    2.4350   18.0490 C.ar  229  PHE229     -0.0003
    170  CE2        5.0420    2.5430   18.8780 C.ar  229  PHE229     -0.0003
    171  CZ         3.7050    2.1790   19.0460 C.ar  229  PHE229     -0.0000
    172  N          6.9940    2.2310   12.9870 N.am  230  PRO230     -0.2492
    173  CA         8.3290    1.8280   12.7090 C.3   230  PRO230      0.1619
    174  C          9.2730    2.9890   12.7460 C.2   230  PRO230      0.2605
    175  O          8.9130    4.1430   12.5520 O.2   230  PRO230     -0.2715
    176  CB         8.3390    1.1910   11.3260 C.3   230  PRO230      0.0570
    177  CG         6.9140    1.2130   10.8210 C.2   230  PRO230     -0.0077
    178  CD         6.0910    1.9890   11.8270 C.2   230  PRO230      0.0634
    179  N         10.4970    2.6270   13.0240 N.am  231  LYS231     -0.1964
    180  CA        11.5540    3.5630   13.0840 C.3   231  LYS231      0.1728
    181  C         12.5310    3.3800   11.9250 C.2   231  LYS231      0.2617
    182  O         12.8780    2.2710   11.5310 O.2   231  LYS231     -0.2715
    183  CB        12.2330    3.4890   14.4490 C.3   231  LYS231      0.0311
    184  CG        13.4410    4.3940   14.6000 C.3   231  LYS231      0.0038
    185  CD        14.7070    3.7970   14.0100 C.3   231  LYS231      0.0206
    186  CE        15.8980    4.7150   14.1540 C.3   231  LYS231      0.1093
    187  NZ        17.1120    4.1870   13.5160 N.3   231  LYS231     -0.1314
    188  N         12.9850    4.5050   11.3960 N.am  232  SER232     -0.1936
    189  CA        13.9620    4.5330   10.3360 C.3   232  SER232      0.2055
    190  C         14.5810    5.9050   10.2170 C.2   232  SER232      0.2643
    191  O         13.8940    6.9100   10.2850 O.2   232  SER232     -0.2714
    192  CB        13.4690    4.0420    8.9770 C.3   232  SER232      0.2130
    193  OG        14.5590    4.1550    8.0760 O.3   232  SER232     -0.2179
    194  N         15.9020    5.9490   10.0690 N.am  233  VAL233     -0.1963
    195  CA        16.5730    7.2260    9.9380 C.3   233  VAL233      0.1727
    196  C         16.7340    7.6540    8.4820 C.2   233  VAL233      0.2616
    197  O         17.3230    8.7060    8.2050 O.2   233  VAL233     -0.2715
    198  CB        17.9300    7.2640   10.6360 C.3   233  VAL233      0.0290
    199  CG1       17.7420    7.5460   12.1200 C.3   233  VAL233      0.0023
    200  CG2       18.6380    5.9320   10.4460 C.3   233  VAL233      0.0023
    201  N         16.2480    6.8050    7.5600 N.am  234  ARG234     -0.1977
    202  CA        16.3490    7.0310    6.1080 C.3   234  ARG234      0.1597
    203  C         15.0550    7.5470    5.4540 C.2   234  ARG234      0.2287
    204  O         14.0230    6.8820    5.5200 O.2   234  ARG234     -0.2864
    205  CB        16.8760    5.7710    5.4180 C.3   234  ARG234      0.0334
    206  CG        18.2850    5.3780    5.9020 C.3   234  ARG234      0.0492
    207  CD        18.6430    3.8980    5.6880 C.3   234  ARG234      0.2205
    208  NE        19.7710    3.4710    6.5330 N.pl3 234  ARG234     -0.0865
    209  CZ        20.2290    2.2180    6.6920 C.cat 234  ARG234      0.5346
    210  NH1       19.6960    1.1630    6.0770 N.pl3 234  ARG234      0.1354
    211  NH2       21.2670    2.0240    7.5130 N.pl3 234  ARG234      0.1354
    212  N         12.9300    5.1900    3.4650 N.3   237  ARG237     -0.1245
    213  CA        12.1580    4.2650    4.2790 C.3   237  ARG237      0.1563
    214  C         10.9070    4.8960    4.8720 C.2   237  ARG237      0.2260
    215  O          9.8530    4.2660    4.9330 O.2   237  ARG237     -0.2867
    216  CB        13.0150    3.5350    5.2990 C.3   237  ARG237      0.0307
    217  CG        14.0490    2.6330    4.6450 C.3   237  ARG237      0.0489
    218  CD        15.0570    2.0280    5.6130 C.3   237  ARG237      0.2205
    219  NE        15.9330    1.0490    4.9650 N.pl3 237  ARG237     -0.0865
    220  CZ        16.9580    0.4260    5.5510 C.cat 237  ARG237      0.5346
    221  NH1       17.3020    0.6370    6.8170 N.pl3 237  ARG237      0.1354
    222  NH2       17.6670   -0.4400    4.8430 N.pl3 237  ARG237      0.1354
    223  N          8.7270    4.8230    2.0900 N.3   240  GLU240     -0.1231
    224  CA         8.3100    3.4650    1.8080 C.3   240  GLU240      0.1699
    225  C          7.3370    2.9440    2.8520 C.2   240  GLU240      0.2592
    226  O          6.2780    2.3880    2.5380 O.2   240  GLU240     -0.2718
    227  CB         9.5390    2.5460    1.7000 C.3   240  GLU240      0.0402
    228  CG         9.2150    1.0380    1.7270 C.3   240  GLU240      0.1161
    229  CD        10.4590    0.1930    1.8020 C.2   240  GLU240      0.3649
    230  OE1       11.5610    0.5870    1.4750 O.co2 240  GLU240     -0.2457
    231  OE2       10.2380   -0.9990    2.2790 O.co2 240  GLU240     -0.2457
    232  N          7.7020    3.1270    4.1110 N.am  241  ASN241     -0.1974
    233  CA         6.8590    2.6310    5.1690 C.3   241  ASN241      0.1688
    234  C          5.5090    3.3200    5.2770 C.2   241  ASN241      0.2292
    235  O          4.5770    2.7820    5.8690 O.2   241  ASN241     -0.2864
    236  CB         7.5870    2.5980    6.5240 C.3   241  ASN241      0.1181
    237  CG         8.8760    1.8000    6.5020 C.2   241  ASN241      0.2629
    238  OD1        9.1370    1.0130    5.5680 O.2   241  ASN241     -0.2716
    239  ND2        9.6980    2.0160    7.5370 N.am  241  ASN241     -0.0877
@<TRIPOS>BOND
     1   230   229   ar
     2   227   228    1
     3   227   224    1
     4   228   229    1
     5   229   231   ar
     6   224   223    1
     7   224   225    1
     8   226   225    2
     9   225   232   am
    10   148   147    2
    11   212   213    1
    12   156   157    1
    13   232   233    1
    14   147   146    1
    15   213   214    1
    16   213   216    1
    17   217   216    1
    18   217   218    1
    19   149   146    1
    20   149   150    1
    21   222   220    1
    22   214   215    2
    23   157   158    1
    24   157   160    1
    25   158   159    2
    26   219   220    2
    27   219   218    1
    28   146   145    1
    29   233   234    1
    30   233   236    1
    31   234   235    2
    32   205   206    1
    33   205   202    1
    34   203   204    2
    35   203   202    1
    36   220   221    1
    37   238   237    2
    38   207   206    1
    39   207   208    1
    40   150   152   ar
    41   150   151   ar
    42   210   209    1
    43   202   201    1
    44   152   154   ar
    45   151   153   ar
    46   237   236    1
    47   237   239   am
    48   208   209    2
    49   209   211    1
    50   154   155   ar
    51   153   155   ar
    52   201   196   am
    53   193   192    1
    54   197   196    2
    55   196   195    1
    56   192   189    1
    57   131   129    1
    58   130   129    1
    59   195   194    1
    60   195   198    1
    61   194   190   am
    62   190   191    2
    63   190   189    1
    64   189   188    1
    65   129   128    1
    66   200   198    1
    67   198   199    1
    68   177   176    1
    69   177   178    2
    70   128   125    1
    71   176   173    1
    72   188   181   am
    73   182   181    2
    74   178   172    1
    75   125   126    1
    76   125   124    1
    77   181   180    1
    78   127   126    2
    79   175   174    2
    80   120   119    2
    81   142   143    1
    82   142   141    1
    83   173   174    1
    84   173   172    1
    85   174   179   am
    86   124   119   am
    87   172   163   am
    88   179   180    1
    89   144   143    2
    90   180   183    1
    91   119   118    1
    92   141   134   am
    93   187   186    1
    94   121   122    1
    95   121   118    1
    96   185   186    1
    97   185   184    1
    98   122   123    1
    99   163   162    1
   100   163   164    2
   101   162   161    1
   102   162   165    1
   103   118   117    1
   104   183   184    1
   105   134   135    2
   106   134   133    1
   107   132   133    1
   108   123   117    1
   109     1     2    1
   110   133   136    1
   111   165   166    1
   112   117   115   am
   113     4     3    2
   114   116   115    2
   115   115   114    1
   116     2     3    1
   117     3     5   am
   118   166   167   ar
   119   166   168   ar
   120   136   137    1
   121    10     9    1
   122   167   169   ar
   123   114   113    1
   124   137   138    1
   125   168   170   ar
   126     5     6    1
   127    15    14    2
   128     6     9    1
   129     6     7    1
   130   113   101   am
   131   169   171   ar
   132     9    11    1
   133   101   102    2
   134   101   100    1
   135    23    24    1
   136     7    12   am
   137     7     8    2
   138   170   171   ar
   139    14    13    1
   140    12    13    1
   141    99   100    1
   142   100   103    1
   143   138   139    2
   144   138   140   am
   145    27    24    1
   146    27    28    1
   147    24    25    1
   148    13    16    1
   149    26    25    2
   150    16    17    1
   151   103   104    1
   152    19    17   ar
   153    19    21   ar
   154    28    29   ar
   155    28    30   ar
   156    17    18   ar
   157    21    22   ar
   158   109   111   ar
   159   109   106   ar
   160   104   106   ar
   161   104   105   ar
   162   111   112   ar
   163    18    20   ar
   164   106   108   ar
   165    22    20   ar
   166    98    96   am
   167    97    96    2
   168    96    95    1
   169    40    38   ar
   170    40    41   ar
   171    95    94    1
   172    38    36   ar
   173   105   107   ar
   174    42    41    1
   175   112   110   ar
   176   108   107   ar
   177   108   110   ar
   178    41    39   ar
   179    94    91    1
   180    91    92    1
   181    91    90    1
   182    36    35    1
   183    36    37   ar
   184    35    32    1
   185    51    50    1
   186    92    93    2
   187    34    33    2
   188    39    37   ar
   189    50    49    1
   190    33    32    1
   191    32    31    1
   192    49    48    1
   193    88    87    2
   194    48    47    1
   195    81    80    1
   196    61    60   ar
   197    61    59   ar
   198    87    89   am
   199    87    86    1
   200    60    58   ar
   201    80    77    1
   202    43    44    1
   203    82    83    1
   204    82    78   am
   205    77    78    1
   206    77    76    1
   207    47    44    1
   208    73    75   ar
   209    73    71   ar
   210    59    57   ar
   211    75    74   ar
   212    83    86    1
   213    83    84    1
   214    58    57   ar
   215    78    79    2
   216    44    45    1
   217    57    56    1
   218    71    70   ar
   219    71    69   ar
   220    74    72   ar
   221    70    68   ar
   222    55    54    2
   223    84    85    2
   224    45    46    2
   225    69    72   ar
   226    69    67   ar
   227    56    53    1
   228    53    54    1
   229    53    52    1
   230    54    62   am
   231    68    67   ar
   232    67    66    1
   233    62    63    1
   234    63    66    1
   235    63    64    1
   236    64    65    2
