@<TRIPOS>MOLECULE
tmp/1a82A00.pdb
 108 105 0 0 0
SMALL
GASTEIGER

@<TRIPOS>ATOM
      1  N          0.2000   25.8380    6.5790 N.3    11  THR11      -0.1203
      2  CA         0.1830   24.9720    7.7400 C.3    11  THR11       0.1994
      3  C          0.9970   23.7530    7.2530 C.2    11  THR11       0.2617
      4  O          1.1270   23.5410    6.0390 O.2    11  THR11      -0.2717
      5  CB        -1.2780   24.5640    8.1380 C.3    11  THR11       0.1784
      6  OG1       -1.2440   23.7040    9.2920 O.3    11  THR11      -0.2211
      7  CG2       -2.0010   23.8520    6.9830 C.3    11  THR11       0.0376
      8  N          1.6120   23.0150    8.1700 N.am   12  GLU12      -0.1979
      9  CA         2.4040   21.8340    7.8150 C.3    12  GLU12       0.1602
     10  C          3.6250   22.0820    6.9220 C.2    12  GLU12       0.2287
     11  O          3.9080   21.2860    6.0380 O.2    12  GLU12      -0.2864
     12  CB         1.5240   20.7480    7.1730 C.3    12  GLU12       0.0415
     13  CG         1.4950   19.4290    7.9430 C.3    12  GLU12       0.1163
     14  CD         0.6590   19.5020    9.2220 C.2    12  GLU12       0.3649
     15  OE1        0.6550   20.5580    9.9030 O.co2  12  GLU12      -0.2457
     16  OE2       -0.0200   18.5020    9.5410 O.co2  12  GLU12      -0.2457
     17  N          2.8950   29.1910   22.2480 N.3    37  LYS37      -0.1245
     18  CA         1.9290   28.7700   21.2250 C.3    37  LYS37       0.1561
     19  C          0.5810   29.2000   21.8250 C.2    37  LYS37       0.2260
     20  O         -0.1560   28.3680   22.3380 O.2    37  LYS37      -0.2867
     21  CB         2.0040   27.2330   21.0500 C.3    37  LYS37       0.0271
     22  CG         1.0120   26.6120   20.0490 C.3    37  LYS37       0.0035
     23  CD         1.4330   26.7860   18.5790 C.3    37  LYS37       0.0206
     24  CE         0.4310   26.1000   17.6260 C.3    37  LYS37       0.1093
     25  NZ         0.8980   26.1470   16.2040 N.3    37  LYS37      -0.1314
     26  N         -4.7960   24.0790   17.7880 N.3    41  SER41      -0.1202
     27  CA        -5.9100   23.2310   17.3740 C.3    41  SER41       0.2020
     28  C         -5.2870   21.9030   16.9230 C.2    41  SER41       0.2619
     29  O         -4.1890   21.8890   16.3340 O.2    41  SER41      -0.2717
     30  CB        -6.7290   23.8750   16.2390 C.3    41  SER41       0.2103
     31  OG        -5.9710   24.0440   15.0430 O.3    41  SER41      -0.2182
     32  N         -5.9790   20.7970   17.1890 N.am   42  GLY42      -0.1956
     33  CA        -5.4600   19.4850   16.8260 C.3    42  GLY42       0.1869
     34  C         -4.6920   19.0380   18.0500 C.2    42  GLY42       0.2309
     35  O         -3.4610   19.0830   18.0660 O.2    42  GLY42      -0.2863
     36  N          2.5500   20.6760   19.2700 N.3    54  ASP54      -0.1239
     37  CA         3.4130   21.8360   19.0030 C.3    54  ASP54       0.1674
     38  C          3.7820   22.4820   20.3380 C.2    54  ASP54       0.2266
     39  O          4.9350   22.8000   20.6080 O.2    54  ASP54      -0.2867
     40  CB         2.6710   22.9100   18.1870 C.3    54  ASP54       0.1410
     41  CG         2.4220   22.5090   16.7480 C.2    54  ASP54       0.3668
     42  OD1        2.5400   21.3210   16.4060 O.co2  54  ASP54      -0.2456
     43  OD2        2.1110   23.4260   15.9500 O.co2  54  ASP54      -0.2456
     44  N         -8.5290   19.5570   14.7920 N.3    79  PRO79      -0.2102
     45  CA        -7.5250   20.1450   13.8870 C.3    79  PRO79       0.1504
     46  C         -8.1430   20.9390   12.7150 C.2    79  PRO79       0.2576
     47  O         -8.1100   20.4910   11.5650 O.2    79  PRO79      -0.2718
     48  CB        -6.7480   18.9200   13.4070 C.3    79  PRO79       0.0282
     49  CG        -7.8210   17.8460   13.3480 C.3    79  PRO79       0.0208
     50  CD        -8.6160   18.0890   14.6160 C.3    79  PRO79       0.0893
     51  N         -8.6940   22.1120   13.0250 N.am   80  THR80      -0.1939
     52  CA        -9.3320   22.9800   12.0330 C.3    80  THR80       0.2028
     53  C         -8.9530   24.4380   12.3450 C.2    80  THR80       0.2643
     54  O         -8.1570   24.6920   13.2550 O.2    80  THR80      -0.2714
     55  CB       -10.9000   22.7740   12.0330 C.3    80  THR80       0.1808
     56  OG1      -11.4860   23.4670   10.9230 O.3    80  THR80      -0.2208
     57  CG2      -11.5350   23.2810   13.3260 C.3    80  THR80       0.0379
     58  N         -9.4810   25.3950   11.5880 N.am   81  SER81      -0.1936
     59  CA        -9.1570   26.8020   11.8340 C.3    81  SER81       0.2040
     60  C         -9.6500   27.1790   13.2470 C.2    81  SER81       0.2485
     61  O        -10.7600   26.8240   13.6440 O.2    81  SER81      -0.2729
     62  CB        -9.7770   27.6880   10.7400 C.3    81  SER81       0.2129
     63  OG        -9.3050   29.0210   10.8100 O.3    81  SER81      -0.2179
     64  N         -8.8030   27.8660   14.0370 N.am   82  PRO82      -0.2726
     65  CA        -9.1210   28.2910   15.4070 C.3    82  PRO82       0.1402
     66  C        -10.4850   28.9610   15.5550 C.2    82  PRO82       0.2269
     67  O        -11.2370   28.6490   16.4810 O.2    82  PRO82      -0.2865
     68  CB        -7.9830   29.2570   15.7340 C.3    82  PRO82       0.0296
     69  CG        -6.8180   28.6210   15.0310 C.3    82  PRO82       0.0237
     70  CD        -7.4330   28.2620   13.6770 C.3    82  PRO82       0.0939
     71  N         -0.3780   29.8380   14.0950 N.3   117  ALA117     -0.1231
     72  CA        -1.1440   28.6360   13.7790 C.3   117  ALA117      0.1694
     73  C         -1.4430   28.7670   12.2990 C.2   117  ALA117      0.2593
     74  O         -1.8370   29.8390   11.8330 O.2   117  ALA117     -0.2718
     75  CB        -2.4400   28.5670   14.6010 C.3   117  ALA117      0.0304
     76  N         -1.1940   27.7050   11.5460 N.am  118  GLY118     -0.1942
     77  CA        -1.4200   27.7810   10.1110 C.3   118  GLY118      0.2014
     78  C         -0.5080   28.8210    9.4640 C.2   118  GLY118      0.2639
     79  O          0.6910   28.9100    9.7740 O.2   118  GLY118     -0.2714
     80  N         -1.0830   29.6240    8.5800 N.am  119  GLY119     -0.1954
     81  CA        -0.3160   30.6410    7.8900 C.3   119  GLY119      0.1869
     82  C         -0.5760   32.0100    8.4810 C.2   119  GLY119      0.2309
     83  O         -1.2520   32.1320    9.5100 O.2   119  GLY119     -0.2863
     84  N         -2.6280   34.6330    7.7810 N.3   121  PHE121     -0.1227
     85  CA        -3.9930   35.0880    7.9920 C.3   121  PHE121      0.1736
     86  C         -4.9970   34.1940    8.7080 C.2   121  PHE121      0.2596
     87  O         -6.1990   34.4680    8.6520 O.2   121  PHE121     -0.2718
     88  CB        -4.5800   35.5310    6.6700 C.3   121  PHE121      0.0547
     89  CG        -4.1470   36.8860    6.2370 C.ar  121  PHE121     -0.0202
     90  CD1       -4.2980   37.9890    7.0890 C.ar  121  PHE121     -0.0042
     91  CD2       -3.6740   37.0830    4.9360 C.ar  121  PHE121     -0.0042
     92  CE1       -3.9920   39.2800    6.6500 C.ar  121  PHE121     -0.0003
     93  CE2       -3.3670   38.3630    4.4810 C.ar  121  PHE121     -0.0003
     94  CZ        -3.5310   39.4720    5.3410 C.ar  121  PHE121     -0.0000
     95  N         -4.5330   33.1880    9.4310 N.am  122  THR122     -0.1939
     96  CA        -5.4240   32.2810   10.1540 C.3   122  THR122      0.2013
     97  C         -6.3980   33.0260   11.0810 C.2   122  THR122      0.2484
     98  O         -5.9800   33.7210   12.0040 O.2   122  THR122     -0.2729
     99  CB        -4.5950   31.2790   10.9580 C.3   122  THR122      0.1807
    100  OG1       -3.7950   30.5230   10.0480 O.3   122  THR122     -0.2208
    101  CG2       -5.4830   30.3370   11.7330 C.3   122  THR122      0.0379
    102  N         -7.7120   32.8860   10.8500 N.am  123  PRO123     -0.2726
    103  CA        -8.6790   33.5770   11.6950 C.3   123  PRO123      0.1402
    104  C         -8.7840   33.0120   13.1190 C.2   123  PRO123      0.2269
    105  O         -8.6350   31.8020   13.3110 O.2   123  PRO123     -0.2865
    106  CB        -9.9980   33.4030   10.9260 C.3   123  PRO123      0.0296
    107  CG        -9.5700   33.1590    9.5010 C.3   123  PRO123      0.0237
    108  CD        -8.3770   32.2630    9.6910 C.3   123  PRO123      0.0939
@<TRIPOS>BOND
     1    93    91   ar
     2    93    94   ar
     3    91    89   ar
     4    94    92   ar
     5    11    10    2
     6     4     3    2
     7    89    88    1
     8    89    90   ar
     9     1     2    1
    10    92    90   ar
    11    88    85    1
    12    10     9    1
    13     7     5    1
    14    12     9    1
    15    12    13    1
    16     3     2    1
    17     3     8   am
    18     2     5    1
    19    84    85    1
    20     9     8    1
    21    81    82    1
    22    81    80    1
    23    13    14    1
    24    85    86    1
    25     5     6    1
    26    82    83    2
    27    80    78   am
    28    87    86    2
    29    86    95   am
    30    14    16   ar
    31    14    15   ar
    32    95    96    1
    33    78    79    2
    34    78    77    1
    35   107   108    1
    36   107   106    1
    37   108   102    1
    38   100    99    1
    39    77    76    1
    40    96    99    1
    41    96    97    1
    42    62    63    1
    43    62    59    1
    44   102    97   am
    45   102   103    1
    46    56    55    1
    47   106   103    1
    48    99   101    1
    49    97    98    2
    50    76    73   am
    51    47    46    2
    52    58    59    1
    53    58    53   am
    54   103   104    1
    55    74    73    2
    56    59    60    1
    57    52    55    1
    58    52    53    1
    59    52    51    1
    60    55    57    1
    61    73    72    1
    62    53    54    2
    63    46    51   am
    64    46    45    1
    65   104   105    2
    66    60    61    2
    67    60    64   am
    68    49    48    1
    69    49    50    1
    70    48    45    1
    71    70    64    1
    72    70    69    1
    73    72    71    1
    74    72    75    1
    75    45    44    1
    76    64    65    1
    77    50    44    1
    78    69    68    1
    79    31    30    1
    80    65    66    1
    81    65    68    1
    82    66    67    2
    83    43    41   ar
    84    25    24    1
    85    30    27    1
    86    29    28    2
    87    42    41   ar
    88    41    40    1
    89    33    32    1
    90    33    34    1
    91    28    32   am
    92    28    27    1
    93    27    26    1
    94    24    23    1
    95    34    35    2
    96    40    37    1
    97    23    22    1
    98    37    36    1
    99    37    38    1
   100    22    21    1
   101    38    39    2
   102    21    18    1
   103    18    19    1
   104    18    17    1
   105    19    20    2
