@<TRIPOS>MOLECULE
tmp/1a82A01.pdb
 166 162 0 0 0
SMALL
GASTEIGER

@<TRIPOS>ATOM
      1  N          0.2000   25.8380    6.5790 N.3    11  THR11      -0.1203
      2  CA         0.1830   24.9720    7.7400 C.3    11  THR11       0.1994
      3  C          0.9970   23.7530    7.2530 C.2    11  THR11       0.2618
      4  O          1.1270   23.5410    6.0390 O.2    11  THR11      -0.2717
      5  CB        -1.2780   24.5640    8.1380 C.3    11  THR11       0.1784
      6  OG1       -1.2440   23.7040    9.2920 O.3    11  THR11      -0.2211
      7  CG2       -2.0010   23.8520    6.9830 C.3    11  THR11       0.0376
      8  N          1.6120   23.0150    8.1700 N.am   12  GLU12      -0.1965
      9  CA         2.4040   21.8340    7.8150 C.3    12  GLU12       0.1733
     10  C          3.6250   22.0820    6.9220 C.2    12  GLU12       0.2616
     11  O          3.9080   21.2860    6.0380 O.2    12  GLU12      -0.2715
     12  CB         1.5240   20.7480    7.1730 C.3    12  GLU12       0.0429
     13  CG         1.4950   19.4290    7.9430 C.3    12  GLU12       0.1163
     14  CD         0.6590   19.5020    9.2220 C.2    12  GLU12       0.3649
     15  OE1        0.6550   20.5580    9.9030 O.co2  12  GLU12      -0.2457
     16  OE2       -0.0200   18.5020    9.5410 O.co2  12  GLU12      -0.2457
     17  N          4.3450   23.1750    7.1450 N.am   13  VAL13      -0.1963
     18  CA         5.5350   23.4400    6.3520 C.3    13  VAL13       0.1727
     19  C          6.7840   23.3560    7.2220 C.2    13  VAL13       0.2617
     20  O          7.9090   23.4580    6.7130 O.2    13  VAL13      -0.2715
     21  CB         5.4800   24.8070    5.6420 C.3    13  VAL13       0.0290
     22  CG1        4.3190   24.8280    4.6600 C.3    13  VAL13       0.0023
     23  CG2        5.3640   25.9520    6.6430 C.3    13  VAL13       0.0023
     24  N          6.5790   23.2170    8.5340 N.am   14  GLY14      -0.1940
     25  CA         7.6900   23.1040    9.4630 C.3    14  GLY14       0.2014
     26  C          7.8690   24.1970   10.5030 C.2    14  GLY14       0.2639
     27  O          8.9570   24.3140   11.0610 O.2    14  GLY14      -0.2714
     28  N          6.8510   25.0120   10.7650 N.am   15  LYS15      -0.1963
     29  CA         6.9740   26.0610   11.7860 C.3    15  LYS15       0.1728
     30  C          7.4680   25.4770   13.1150 C.2    15  LYS15       0.2617
     31  O          8.3560   26.0350   13.7420 O.2    15  LYS15      -0.2715
     32  CB         5.6340   26.7840   12.0390 C.3    15  LYS15       0.0311
     33  CG         5.1130   27.6420   10.8690 C.3    15  LYS15       0.0038
     34  CD         3.8830   28.4540   11.2880 C.3    15  LYS15       0.0206
     35  CE         2.7550   27.5690   11.7300 C.3    15  LYS15       0.1093
     36  NZ         2.2910   26.7270   10.5850 N.3    15  LYS15      -0.1314
     37  N          6.8990   24.3500   13.5330 N.am   16  THR16      -0.1937
     38  CA         7.2810   23.7260   14.8060 C.3    16  THR16       0.2028
     39  C          8.7100   23.1990   14.8060 C.2    16  THR16       0.2642
     40  O          9.4670   23.4660   15.7390 O.2    16  THR16      -0.2714
     41  CB         6.2400   22.6400   15.2370 C.3    16  THR16       0.1808
     42  OG1        4.9800   23.2890   15.4750 O.3    16  THR16      -0.2208
     43  CG2        6.6730   21.9070   16.5250 C.3    16  THR16       0.0379
     44  N          9.0950   22.4780   13.7660 N.am   17  VAL17      -0.1977
     45  CA        10.4560   21.9650   13.6810 C.3    17  VAL17       0.1596
     46  C         11.4670   23.1360   13.6810 C.2    17  VAL17       0.2287
     47  O         12.4620   23.1100   14.4160 O.2    17  VAL17      -0.2864
     48  CB        10.6430   21.0470   12.4260 C.3    17  VAL17       0.0276
     49  CG1       12.1430   20.8080   12.1180 C.3    17  VAL17       0.0022
     50  CG2        9.9670   19.7070   12.6680 C.3    17  VAL17       0.0022
     51  N          2.8950   29.1910   22.2480 N.3    37  LYS37      -0.1245
     52  CA         1.9290   28.7700   21.2250 C.3    37  LYS37       0.1561
     53  C          0.5810   29.2000   21.8250 C.2    37  LYS37       0.2260
     54  O         -0.1560   28.3680   22.3380 O.2    37  LYS37      -0.2867
     55  CB         2.0040   27.2330   21.0500 C.3    37  LYS37       0.0271
     56  CG         1.0120   26.6120   20.0490 C.3    37  LYS37       0.0035
     57  CD         1.4330   26.7860   18.5790 C.3    37  LYS37       0.0206
     58  CE         0.4310   26.1000   17.6260 C.3    37  LYS37       0.1093
     59  NZ         0.8980   26.1470   16.2040 N.3    37  LYS37      -0.1314
     60  N          2.5500   20.6760   19.2700 N.3    54  ASP54      -0.1239
     61  CA         3.4130   21.8360   19.0030 C.3    54  ASP54       0.1674
     62  C          3.7820   22.4820   20.3380 C.2    54  ASP54       0.2266
     63  O          4.9350   22.8000   20.6080 O.2    54  ASP54      -0.2867
     64  CB         2.6710   22.9100   18.1870 C.3    54  ASP54       0.1410
     65  CG         2.4220   22.5090   16.7480 C.2    54  ASP54       0.3668
     66  OD1        2.5400   21.3210   16.4060 O.co2  54  ASP54      -0.2456
     67  OD2        2.1110   23.4260   15.9500 O.co2  54  ASP54      -0.2456
     68  N          5.0010   30.7860   18.1990 N.3   115  GLU115     -0.1245
     69  CA         4.5790   30.1010   16.9710 C.3   115  GLU115      0.1567
     70  C          3.1020   30.4160   16.6990 C.2   115  GLU115      0.2260
     71  O          2.2760   30.4070   17.6180 O.2   115  GLU115     -0.2867
     72  CB         4.8040   28.5850   17.0340 C.3   115  GLU115      0.0388
     73  CG         4.4280   27.9090   15.7140 C.3   115  GLU115      0.1160
     74  CD         4.3680   26.3860   15.7630 C.2   115  GLU115      0.3649
     75  OE1        5.0010   25.7690   16.6470 O.co2 115  GLU115     -0.2457
     76  OE2        3.6880   25.8060   14.8720 O.co2 115  GLU115     -0.2457
     77  N         -0.3780   29.8380   14.0950 N.3   117  ALA117     -0.1231
     78  CA        -1.1440   28.6360   13.7790 C.3   117  ALA117      0.1694
     79  C         -1.4430   28.7670   12.2990 C.2   117  ALA117      0.2592
     80  O         -1.8370   29.8390   11.8330 O.2   117  ALA117     -0.2718
     81  CB        -2.4400   28.5670   14.6010 C.3   117  ALA117      0.0304
     82  N         -1.1940   27.7050   11.5460 N.am  118  GLY118     -0.1957
     83  CA        -1.4200   27.7810   10.1110 C.3   118  GLY118      0.1869
     84  C         -0.5080   28.8210    9.4640 C.2   118  GLY118      0.2309
     85  O          0.6910   28.9100    9.7740 O.2   118  GLY118     -0.2863
     86  N         13.2230   25.0270    5.2680 N.3   175  ASN175     -0.1225
     87  CA        13.0200   23.7270    5.8750 C.3   175  ASN175      0.1785
     88  C         12.8210   22.6490    4.8210 C.2   175  ASN175      0.2597
     89  O         11.9090   22.7440    3.9980 O.2   175  ASN175     -0.2718
     90  CB        11.8300   23.7700    6.8300 C.3   175  ASN175      0.1169
     91  CG        11.6410   22.4650    7.5650 C.2   175  ASN175      0.2627
     92  OD1       12.6010   21.8860    8.0370 O.2   175  ASN175     -0.2716
     93  ND2       10.4070   21.9820    7.6420 N.am  175  ASN175     -0.0877
     94  N         13.6890   21.6440    4.8180 N.am  176  ASP176     -0.1960
     95  CA        13.6040   20.5700    3.8390 C.3   176  ASP176      0.1840
     96  C         12.5790   19.5490    4.2840 C.2   176  ASP176      0.2621
     97  O         12.8850   18.6040    5.0150 O.2   176  ASP176     -0.2715
     98  CB        14.9700   19.9230    3.6300 C.3   176  ASP176      0.1450
     99  CG        16.0320   20.9270    3.2060 C.2   176  ASP176      0.3671
    100  OD1       15.6760   22.0670    2.8520 O.co2 176  ASP176     -0.2456
    101  OD2       17.2280   20.5820    3.2470 O.co2 176  ASP176     -0.2456
    102  N         11.3500   19.7630    3.8500 N.am  177  VAL177     -0.1977
    103  CA        10.2500   18.8860    4.2050 C.3   177  VAL177      0.1596
    104  C         10.3370   17.5210    3.5290 C.2   177  VAL177      0.2287
    105  O          9.7900   16.5350    4.0350 O.2   177  VAL177     -0.2864
    106  CB         8.8670   19.5610    3.9310 C.3   177  VAL177      0.0276
    107  CG1        8.6280   20.6760    4.9170 C.3   177  VAL177      0.0022
    108  CG2        8.8080   20.1280    2.5360 C.3   177  VAL177      0.0022
    109  N         17.1890   23.6300    7.5870 N.3   203  ILE203     -0.1231
    110  CA        17.0570   22.3990    8.3450 C.3   203  ILE203      0.1678
    111  C         16.9630   21.2450    7.3520 C.2   203  ILE203      0.2434
    112  O         16.1130   21.2430    6.4590 O.2   203  ILE203     -0.2733
    113  CB        15.8380   22.4820    9.2840 C.3   203  ILE203      0.0265
    114  CG1       16.0710   23.6190   10.2930 C.3   203  ILE203      0.0019
    115  CG2       15.5750   21.1410    9.9980 C.3   203  ILE203      0.0020
    116  CD1       14.9160   23.8640   11.1790 C.3   203  ILE203      0.0001
    117  N         17.8780   20.2780    7.4520 N.am  204  PRO204     -0.2718
    118  CA        17.8770   19.1250    6.5380 C.3   204  PRO204      0.1535
    119  C         16.6360   18.2600    6.6910 C.2   204  PRO204      0.2599
    120  O         15.9010   18.3820    7.6820 O.2   204  PRO204     -0.2715
    121  CB        19.1180   18.3210    6.9780 C.3   204  PRO204      0.0310
    122  CG        19.9630   19.3070    7.7280 C.3   204  PRO204      0.0237
    123  CD        18.9760   20.1820    8.4330 C.3   204  PRO204      0.0939
    124  N         16.4150   17.3750    5.7150 N.am  205  TRP205     -0.1960
    125  CA        15.2910   16.4440    5.7710 C.3   205  TRP205      0.1771
    126  C         15.6430   15.4080    6.8430 C.2   205  TRP205      0.2620
    127  O         16.5370   14.5760    6.6450 O.2   205  TRP205     -0.2715
    128  CB        15.0690   15.7640    4.4110 C.3   205  TRP205      0.0590
    129  CG        14.0490   14.6680    4.4730 C.ar  205  TRP205      0.0006
    130  CD1       12.7080   14.7880    4.7800 C.ar  205  TRP205      0.0946
    131  CD2       14.2900   13.2750    4.2870 C.ar  205  TRP205      0.0152
    132  NE1       12.1130   13.5470    4.8010 N.ar  205  TRP205     -0.2442
    133  CE2       13.0610   12.6020    4.5030 C.ar  205  TRP205      0.0810
    134  CE3       15.4260   12.5270    3.9650 C.ar  205  TRP205      0.0012
    135  CZ2       12.9430   11.2100    4.4070 C.ar  205  TRP205      0.0191
    136  CZ3       15.3090   11.1450    3.8720 C.ar  205  TRP205      0.0001
    137  CH2       14.0770   10.5010    4.0920 C.ar  205  TRP205      0.0015
    138  N         14.9780   15.5010    7.9950 N.am  206  LEU206     -0.1963
    139  CA        15.2140   14.6060    9.1290 C.3   206  LEU206      0.1728
    140  C         13.9580   13.7760    9.3750 C.2   206  LEU206      0.2616
    141  O         13.0610   14.1540   10.1390 O.2   206  LEU206     -0.2715
    142  CB        15.5850   15.4290   10.3660 C.3   206  LEU206      0.0311
    143  CG        16.9530   16.1040   10.2210 C.3   206  LEU206      0.0022
    144  CD1       17.0240   17.4000   11.0060 C.3   206  LEU206      0.0001
    145  CD2       18.0300   15.1340   10.6500 C.3   206  LEU206      0.0001
    146  N         13.8980   12.6460    8.6880 N.am  207  ALA207     -0.1977
    147  CA        12.7550   11.7420    8.7360 C.3   207  ALA207      0.1597
    148  C         12.1930   11.4020   10.1160 C.2   207  ALA207      0.2287
    149  O         10.9900   11.5710   10.3570 O.2   207  ALA207     -0.2864
    150  CB        13.0920   10.4660    7.9710 C.3   207  ALA207      0.0319
    151  N         12.1140   14.8630   13.9910 N.3   210  PRO210     -0.2102
    152  CA        12.9040   16.0880   13.8320 C.3   210  PRO210      0.1504
    153  C         12.6760   17.1590   14.9050 C.2   210  PRO210      0.2575
    154  O         13.4800   18.0710   15.0380 O.2   210  PRO210     -0.2718
    155  CB        12.5110   16.5670   12.4340 C.3   210  PRO210      0.0282
    156  CG        11.0760   16.1240   12.3230 C.3   210  PRO210      0.0208
    157  CD        11.1240   14.7290   12.9070 C.3   210  PRO210      0.0893
    158  N         11.5860   17.0430   15.6650 N.am  211  GLU211     -0.1980
    159  CA        11.2750   18.0010   16.7290 C.3   211  GLU211      0.1602
    160  C         12.2690   17.7930   17.8700 C.2   211  GLU211      0.2287
    161  O         12.5630   18.7180   18.6430 O.2   211  GLU211     -0.2864
    162  CB         9.8390   17.8080   17.2670 C.3   211  GLU211      0.0415
    163  CG         8.7160   18.1260   16.2820 C.3   211  GLU211      0.1163
    164  CD         8.4820   17.0350   15.2270 C.2   211  GLU211      0.3649
    165  OE1        8.9680   15.8960   15.3910 O.co2 211  GLU211     -0.2457
    166  OE2        7.7930   17.3080   14.2230 O.co2 211  GLU211     -0.2457
@<TRIPOS>BOND
     1   108   106    1
     2   100    99   ar
     3    99   101   ar
     4    99    98    1
     5   104   105    2
     6   104   103    1
     7    98    95    1
     8    95    96    1
     9    95    94    1
    10   102   103    1
    11   102    96   am
    12   136   134   ar
    13   136   137   ar
    14   106   103    1
    15   106   107    1
    16   134   131   ar
    17    89    88    2
    18   137   135   ar
    19    96    97    2
    20   131   129   ar
    21   131   133   ar
    22   135   133   ar
    23   128   129    1
    24   128   125    1
    25   129   130   ar
    26   133   132   ar
    27    22    21    1
    28   130   132   ar
    29    94    88   am
    30    88    87    1
    31    86    87    1
    32    21    18    1
    33    21    23    1
    34   124   125    1
    35   124   119   am
    36   125   126    1
    37    87    90    1
    38    11    10    2
    39     4     3    2
    40    18    17    1
    41    18    19    1
    42   112   111    2
    43   118   119    1
    44   118   121    1
    45   118   117    1
    46     1     2    1
    47   127   126    2
    48   119   120    2
    49    20    19    2
    50    90    91    1
    51   126   138   am
    52    10    17   am
    53    10     9    1
    54   121   122    1
    55     7     5    1
    56    12     9    1
    57    12    13    1
    58    19    24   am
    59     3     2    1
    60     3     8   am
    61   111   117   am
    62   111   110    1
    63   117   123    1
    64    91    93   am
    65    91    92    2
    66   109   110    1
    67   122   123    1
    68     2     5    1
    69     9     8    1
    70    13    14    1
    71   150   147    1
    72   138   139    1
    73     5     6    1
    74   110   113    1
    75    24    25    1
    76   146   147    1
    77   146   140   am
    78   147   148    1
    79   139   140    1
    80   139   142    1
    81    14    16   ar
    82    14    15   ar
    83   113   115    1
    84   113   114    1
    85   140   141    2
    86    25    26    1
    87    84    85    2
    88    84    83    1
    89    83    82    1
    90   148   149    2
    91   143   142    1
    92   143   145    1
    93   143   144    1
    94   114   116    1
    95    26    28   am
    96    26    27    2
    97    36    35    1
    98    28    29    1
    99    33    34    1
   100    33    32    1
   101    34    35    1
   102    82    79   am
   103    29    32    1
   104    29    30    1
   105    80    79    2
   106    49    48    1
   107    79    78    1
   108   156   155    1
   109   156   157    1
   110    48    50    1
   111    48    45    1
   112   155   152    1
   113   157   151    1
   114    30    37   am
   115    30    31    2
   116    37    38    1
   117    45    46    1
   118    45    44    1
   119    46    47    2
   120    44    39   am
   121    78    77    1
   122    78    81    1
   123   152   151    1
   124   152   153    1
   125   166   164   ar
   126    39    38    1
   127    39    40    2
   128    38    41    1
   129    76    74   ar
   130   153   154    2
   131   153   158   am
   132   164   165   ar
   133   164   163    1
   134    41    42    1
   135    41    43    1
   136   158   159    1
   137    73    74    1
   138    73    72    1
   139    74    75   ar
   140    67    65   ar
   141    59    58    1
   142   163   162    1
   143    66    65   ar
   144    70    69    1
   145    70    71    2
   146   159   162    1
   147   159   160    1
   148    65    64    1
   149    69    72    1
   150    69    68    1
   151    58    57    1
   152   160   161    2
   153    64    61    1
   154    57    56    1
   155    61    60    1
   156    61    62    1
   157    56    55    1
   158    62    63    2
   159    55    52    1
   160    52    53    1
   161    52    51    1
   162    53    54    2
