@<TRIPOS>MOLECULE
tmp/1a85A00.pdb
 164 163 0 0 0
SMALL
GASTEIGER

@<TRIPOS>ATOM
      1  N         32.6070   63.8250   46.5180 N.3    74  GLY74      -0.1210
      2  CA        32.7890   63.8720   47.9570 C.3    74  GLY74       0.1956
      3  C         31.5350   63.4560   48.6950 C.2    74  GLY74       0.2612
      4  O         31.0400   62.3370   48.4970 O.2    74  GLY74      -0.2717
      5  N         31.0980   64.3070   49.6320 N.am   75  ILE75      -0.1965
      6  CA        29.8550   64.0850   50.3720 C.3    75  ILE75       0.1727
      7  C         28.6540   64.2160   49.3630 C.2    75  ILE75       0.2616
      8  O         28.4800   65.2820   48.7050 O.2    75  ILE75      -0.2715
      9  CB        29.6950   65.1390   51.4530 C.3    75  ILE75       0.0290
     10  CG1       30.9120   65.0480   52.3960 C.3    75  ILE75       0.0022
     11  CG2       28.1910   65.0520   52.1470 C.3    75  ILE75       0.0023
     12  CD1       30.9730   66.1160   53.3840 C.3    75  ILE75       0.0001
     13  N         27.8520   63.1820   49.2100 N.am   76  LEU76      -0.1963
     14  CA        26.7640   63.2580   48.2400 C.3    76  LEU76       0.1728
     15  C         25.4720   63.6690   48.9030 C.2    76  LEU76       0.2616
     16  O         24.6030   64.2460   48.2520 O.2    76  LEU76      -0.2715
     17  CB        26.5920   61.8740   47.5780 C.3    76  LEU76       0.0311
     18  CG        27.8720   61.2950   46.9010 C.3    76  LEU76       0.0022
     19  CD1       27.5750   59.9800   46.1500 C.3    76  LEU76       0.0001
     20  CD2       28.4260   62.2920   45.9280 C.3    76  LEU76       0.0001
     21  N         25.3170   63.3310   50.1680 N.am   77  ALA77      -0.1963
     22  CA        24.0600   63.5850   50.9160 C.3    77  ALA77       0.1728
     23  C         24.2350   63.1520   52.3380 C.2    77  ALA77       0.2616
     24  O         25.2570   62.5100   52.6800 O.2    77  ALA77      -0.2715
     25  CB        22.8450   62.7410   50.2970 C.3    77  ALA77       0.0334
     26  N         23.2300   63.4950   53.1620 N.am   78  HIS78      -0.1973
     27  CA        23.2170   63.1180   54.5490 C.3    78  HIS78       0.1656
     28  C         21.7940   63.1490   55.0480 C.2    78  HIS78       0.2291
     29  O         20.9790   63.8780   54.4790 O.2    78  HIS78      -0.2864
     30  CB        24.1460   63.9780   55.4270 C.3    78  HIS78       0.0771
     31  CG        23.8600   65.4470   55.3990 C.ar   78  HIS78       0.0820
     32  ND1       24.8460   66.4070   55.3110 N.ar   78  HIS78      -0.2267
     33  CD2       22.6930   66.1270   55.5810 C.ar   78  HIS78       0.1154
     34  CE1       24.2740   67.6080   55.4580 C.ar   78  HIS78       0.1986
     35  NE2       22.9570   67.4780   55.6280 N.ar   78  HIS78      -0.2212
     36  N         25.8270   60.3940   39.5180 N.3   105  TYR105     -0.1241
     37  CA        25.4460   59.6180   40.6900 C.3   105  TYR105      0.1605
     38  C         23.9340   59.2420   40.6020 C.2   105  TYR105      0.2264
     39  O         23.0410   60.1240   40.4680 O.2   105  TYR105     -0.2867
     40  CB        25.6450   60.4840   41.9380 C.3   105  TYR105      0.0534
     41  CG        27.0960   60.5990   42.2840 C.ar  105  TYR105     -0.0201
     42  CD1       27.7750   59.4720   42.7330 C.ar  105  TYR105     -0.0009
     43  CD2       27.8190   61.7750   42.1020 C.ar  105  TYR105     -0.0009
     44  CE1       29.1290   59.4690   42.9900 C.ar  105  TYR105      0.0417
     45  CE2       29.1790   61.8080   42.3520 C.ar  105  TYR105      0.0417
     46  CZ        29.8660   60.6460   42.7940 C.ar  105  TYR105      0.1957
     47  OH        31.2700   60.6510   43.0150 O.3   105  TYR105     -0.2866
     48  N         19.8050   54.9510   44.1440 N.3   109  LEU109     -0.1231
     49  CA        20.7930   54.3030   45.0850 C.3   109  LEU109      0.1693
     50  C         21.2100   55.1820   46.2430 C.2   109  LEU109      0.2591
     51  O         21.2410   54.7120   47.3620 O.2   109  LEU109     -0.2718
     52  CB        22.0400   53.8220   44.3620 C.3   109  LEU109      0.0284
     53  CG        21.7830   52.6470   43.3980 C.3   109  LEU109      0.0019
     54  CD1       22.9770   52.2750   42.5610 C.3   109  LEU109      0.0001
     55  CD2       21.3190   51.4880   44.2210 C.3   109  LEU109      0.0001
     56  N         21.4980   56.4590   45.9830 N.am  110  VAL110     -0.1980
     57  CA        21.8350   57.3640   47.0650 C.3   110  VAL110      0.1595
     58  C         20.6440   57.5840   48.0210 C.2   110  VAL110      0.2287
     59  O         20.8210   57.5910   49.2430 O.2   110  VAL110     -0.2864
     60  CB        22.3210   58.7440   46.5210 C.3   110  VAL110      0.0276
     61  CG1       22.6530   59.7180   47.7240 C.3   110  VAL110      0.0022
     62  CG2       23.5800   58.5190   45.6400 C.3   110  VAL110      0.0022
     63  N         20.0530   54.6050   50.2330 N.3   113  HIS113     -0.1226
     64  CA        21.0550   54.6750   51.2920 C.3   113  HIS113      0.1752
     65  C         20.6840   55.7030   52.3870 C.2   113  HIS113      0.2595
     66  O         20.8350   55.3920   53.5910 O.2   113  HIS113     -0.2718
     67  CB        22.4590   55.0030   50.6960 C.3   113  HIS113      0.0759
     68  CG        23.5180   55.2250   51.7330 C.ar  113  HIS113      0.0818
     69  ND1       24.4600   54.2960   52.0820 N.ar  113  HIS113     -0.2268
     70  CD2       23.7570   56.2960   52.5330 C.ar  113  HIS113      0.1154
     71  CE1       25.2190   54.8030   53.0590 C.ar  113  HIS113      0.1986
     72  NE2       24.8350   56.0270   53.3720 N.ar  113  HIS113     -0.2212
     73  N         20.2600   56.9360   51.9910 N.am  114  GLU114     -0.1979
     74  CA        19.9030   57.9860   52.9600 C.3   114  GLU114      0.1602
     75  C         18.6780   57.6020   53.8180 C.2   114  GLU114      0.2287
     76  O         18.6900   57.8190   55.0250 O.2   114  GLU114     -0.2864
     77  CB        19.6580   59.3660   52.2750 C.3   114  GLU114      0.0415
     78  CG        20.8720   59.9020   51.5450 C.3   114  GLU114      0.1163
     79  CD        22.0870   59.9470   52.5300 C.2   114  GLU114      0.3649
     80  OE1       21.8330   60.3040   53.6890 O.co2 114  GLU114     -0.2457
     81  OE2       23.2440   59.5950   52.1870 O.co2 114  GLU114     -0.2457
     82  N         19.2560   55.6930   56.9290 N.3   117  HIS117     -0.1241
     83  CA        19.6780   56.5420   58.0690 C.3   117  HIS117      0.1621
     84  C         18.4700   57.1580   58.6820 C.2   117  HIS117      0.2264
     85  O         18.4010   57.3340   59.8920 O.2   117  HIS117     -0.2867
     86  CB        20.5920   57.6830   57.6300 C.3   117  HIS117      0.0745
     87  CG        21.9740   57.2740   57.2520 C.ar  117  HIS117      0.0817
     88  ND1       22.8400   56.5940   58.0800 N.ar  117  HIS117     -0.2268
     89  CD2       22.6830   57.5660   56.1330 C.ar  117  HIS117      0.1154
     90  CE1       24.0290   56.5020   57.4530 C.ar  117  HIS117      0.1986
     91  NE2       24.0030   57.0750   56.2760 N.ar  117  HIS117     -0.2212
     92  N         26.0410   53.0480   59.2480 N.3   123  HIS123     -0.1241
     93  CA        26.7650   52.4630   58.1330 C.3   123  HIS123      0.1621
     94  C         27.1500   51.0230   58.4760 C.2   123  HIS123      0.2264
     95  O         27.3230   50.6730   59.6520 O.2   123  HIS123     -0.2867
     96  CB        28.0200   53.2710   57.8570 C.3   123  HIS123      0.0745
     97  CG        27.7810   54.5430   57.1050 C.ar  123  HIS123      0.0817
     98  ND1       28.5520   55.6780   57.2640 N.ar  123  HIS123     -0.2268
     99  CD2       26.8120   54.8710   56.2120 C.ar  123  HIS123      0.1154
    100  CE1       28.0480   56.6600   56.5080 C.ar  123  HIS123      0.1986
    101  NE2       27.0010   56.2360   55.8520 N.ar  123  HIS123     -0.2212
    102  N         23.9760   48.0120   51.2900 N.3   130  LEU130     -0.1245
    103  CA        23.5680   49.3380   50.8070 C.3   130  LEU130      0.1561
    104  C         24.1280   50.4070   51.7960 C.2   130  LEU130      0.2260
    105  O         24.5350   51.5170   51.4080 O.2   130  LEU130     -0.2867
    106  CB        22.0150   49.4080   50.7360 C.3   130  LEU130      0.0270
    107  CG        21.3420   50.6970   50.2340 C.3   130  LEU130      0.0019
    108  CD1       21.8130   51.1390   48.8590 C.3   130  LEU130      0.0001
    109  CD2       19.8650   50.5220   50.2330 C.3   130  LEU130      0.0001
    110  N         26.7550   50.3930   53.3760 N.3   132  TYR132     -0.1228
    111  CA        28.2200   50.5090   53.3240 C.3   132  TYR132      0.1721
    112  C         28.5480   52.0530   53.0630 C.2   132  TYR132      0.2437
    113  O         27.8730   52.7470   52.2650 O.2   132  TYR132     -0.2733
    114  CB        28.8120   49.5780   52.2310 C.3   132  TYR132      0.0547
    115  CG        30.3020   49.5010   52.2220 C.ar  132  TYR132     -0.0200
    116  CD1       30.9890   48.8060   53.2210 C.ar  132  TYR132     -0.0009
    117  CD2       31.0040   50.1010   51.2110 C.ar  132  TYR132     -0.0009
    118  CE1       32.3840   48.7100   53.2050 C.ar  132  TYR132      0.0417
    119  CE2       32.3940   50.0330   51.1580 C.ar  132  TYR132      0.0417
    120  CZ        33.1020   49.3460   52.1470 C.ar  132  TYR132      0.1957
    121  OH        34.5110   49.3660   52.0670 O.3   132  TYR132     -0.2866
    122  N         29.6120   52.6010   53.7250 N.am  133  PRO133     -0.2718
    123  CA        29.9770   54.0340   53.5720 C.3   133  PRO133      0.1535
    124  C         30.2350   54.6540   52.1940 C.2   133  PRO133      0.2599
    125  O         29.9090   55.8260   51.9780 O.2   133  PRO133     -0.2715
    126  CB        31.1740   54.2030   54.4970 C.3   133  PRO133      0.0310
    127  CG        31.0210   53.0310   55.5310 C.3   133  PRO133      0.0237
    128  CD        30.5630   51.9030   54.6140 C.3   133  PRO133      0.0939
    129  N         30.7820   53.8980   51.2450 N.am  134  ASN134     -0.1959
    130  CA        31.0570   54.4690   49.9400 C.3   134  ASN134      0.1819
    131  C         30.0950   54.0100   48.8370 C.2   134  ASN134      0.2621
    132  O         29.6560   52.8570   48.8380 O.2   134  ASN134     -0.2715
    133  CB        32.5160   54.1700   49.5630 C.3   134  ASN134      0.1195
    134  CG        33.5270   54.8200   50.5410 C.2   134  ASN134      0.2630
    135  OD1       34.6510   54.3320   50.7160 O.2   134  ASN134     -0.2716
    136  ND2       33.1340   55.9360   51.1660 N.am  134  ASN134     -0.0877
    137  N         29.7450   54.9200   47.9320 N.am  135  TYR135     -0.1960
    138  CA        28.8580   54.6670   46.7840 C.3   135  TYR135      0.1771
    139  C         29.4630   53.6400   45.7650 C.2   135  TYR135      0.2619
    140  O         30.7240   53.6480   45.4580 O.2   135  TYR135     -0.2715
    141  CB        28.6810   55.9920   46.0250 C.3   135  TYR135      0.0574
    142  CG        27.8980   55.8780   44.7630 C.ar  135  TYR135     -0.0198
    143  CD1       26.5060   55.9240   44.7780 C.ar  135  TYR135     -0.0009
    144  CD2       28.5270   55.7110   43.5440 C.ar  135  TYR135     -0.0009
    145  CE1       25.7430   55.8130   43.6050 C.ar  135  TYR135      0.0417
    146  CE2       27.7890   55.5870   42.3640 C.ar  135  TYR135      0.0417
    147  CZ        26.3820   55.6440   42.3940 C.ar  135  TYR135      0.1957
    148  OH        25.6650   55.5960   41.1890 O.3   135  TYR135     -0.2866
    149  N         28.5830   52.8330   45.1830 N.am  136  ALA136     -0.1977
    150  CA        28.9600   51.8410   44.1690 C.3   136  ALA136      0.1597
    151  C         27.6920   51.6120   43.4060 C.2   136  ALA136      0.2287
    152  O         26.6010   51.5670   44.0200 O.2   136  ALA136     -0.2864
    153  CB        29.3880   50.5590   44.8050 C.3   136  ALA136      0.0319
    154  N         24.9850   49.5510   41.2980 N.3   138  ARG138     -0.1245
    155  CA        24.5430   48.1610   41.2140 C.3   138  ARG138      0.1563
    156  C         23.2940   48.2480   40.3770 C.2   138  ARG138      0.2260
    157  O         22.6390   49.2780   40.3810 O.2   138  ARG138     -0.2867
    158  CB        24.1710   47.5520   42.5770 C.3   138  ARG138      0.0307
    159  CG        24.5710   48.3590   43.8150 C.3   138  ARG138      0.0489
    160  CD        25.5650   47.6080   44.6500 C.3   138  ARG138      0.2205
    161  NE        26.0390   48.3570   45.8120 N.pl3 138  ARG138     -0.0865
    162  CZ        25.4080   48.4200   46.9800 C.cat 138  ARG138      0.5346
    163  NH1       24.2470   47.8000   47.1560 N.pl3 138  ARG138      0.1354
    164  NH2       26.0010   48.9990   48.0150 N.pl3 138  ARG138      0.1354
@<TRIPOS>BOND
     1    36    37    1
     2   156   157    2
     3   156   155    1
     4    39    38    2
     5    38    37    1
     6    37    40    1
     7   148   147    1
     8   155   154    1
     9   155   158    1
    10    40    41    1
    11    43    41   ar
    12    43    45   ar
    13    41    42   ar
    14    45    46   ar
    15   146   147   ar
    16   146   144   ar
    17   147   145   ar
    18    54    53    1
    19   158   159    1
    20    42    44   ar
    21    46    44   ar
    22    46    47    1
    23    53    55    1
    24    53    52    1
    25   151   152    2
    26   151   150    1
    27   144   142   ar
    28   145   143   ar
    29   159   160    1
    30    48    49    1
    31   150   153    1
    32   150   149    1
    33    52    49    1
    34   160   161    1
    35   142   143   ar
    36   142   141    1
    37    49    50    1
    38   149   139   am
    39   140   139    2
    40    62    60    1
    41   139   138    1
    42   161   162    2
    43    20    18    1
    44    56    50   am
    45    56    57    1
    46   141   138    1
    47    19    18    1
    48    50    51    2
    49     1     2    1
    50    60    57    1
    51    60    61    1
    52   138   137    1
    53    18    17    1
    54   162   163    1
    55   162   164    1
    56    57    58    1
    57    17    14    1
    58   137   131   am
    59     2     3    1
    60    58    59    2
    61    14    15    1
    62    14    13    1
    63    16    15    2
    64     4     3    2
    65     3     5   am
    66     8     7    2
    67   131   132    2
    68   131   130    1
    69   108   107    1
    70    15    21   am
    71    13     7   am
    72     7     6    1
    73   133   130    1
    74   133   134    1
    75     5     6    1
    76   130   129    1
    77    21    22    1
    78   109   107    1
    79    63    64    1
    80   107   106    1
    81    25    22    1
    82     6     9    1
    83   134   135    2
    84   134   136   am
    85    67    64    1
    86    67    68    1
    87   106   103    1
    88   103   102    1
    89   103   104    1
    90    22    23    1
    91   119   117   ar
    92   119   120   ar
    93   117   115   ar
    94   129   124   am
    95    64    65    1
    96   105   104    2
    97     9    11    1
    98     9    10    1
    99    78    77    1
   100    78    79    1
   101    68    69   ar
   102    68    70   ar
   103   125   124    2
   104    73    65   am
   105    73    74    1
   106   121   120    1
   107    69    71   ar
   108   120   118   ar
   109    81    79   ar
   110   124   123    1
   111   115   114    1
   112   115   116   ar
   113   114   111    1
   114   113   112    2
   115    77    74    1
   116    23    24    2
   117    23    26   am
   118    65    66    2
   119    10    12    1
   120    79    80   ar
   121    70    72   ar
   122    74    75    1
   123    71    72   ar
   124   112   111    1
   125   112   122   am
   126    26    27    1
   127   118   116   ar
   128   111   110    1
   129   123   122    1
   130   123   126    1
   131   122   128    1
   132    75    76    2
   133    29    28    2
   134   126   127    1
   135    27    28    1
   136    27    30    1
   137   128   127    1
   138    32    31   ar
   139    32    34   ar
   140    31    30    1
   141    31    33   ar
   142    34    35   ar
   143    33    35   ar
   144   101    99   ar
   145   101   100   ar
   146    89    91   ar
   147    89    87   ar
   148    99    97   ar
   149    91    90   ar
   150   100    98   ar
   151    82    83    1
   152    97    98   ar
   153    97    96    1
   154    87    86    1
   155    87    88   ar
   156    90    88   ar
   157    86    83    1
   158    96    93    1
   159    83    84    1
   160    93    94    1
   161    93    92    1
   162    94    95    2
   163    84    85    2
