@<TRIPOS>MOLECULE
tmp/1a86A00.pdb
 157 156 0 0 0
SMALL
GASTEIGER

@<TRIPOS>ATOM
      1  N         32.7630   63.9730   46.2270 N.3    74  GLY74      -0.1210
      2  CA        32.9400   64.0400   47.6640 C.3    74  GLY74       0.1956
      3  C         31.6690   63.6400   48.3990 C.2    74  GLY74       0.2612
      4  O         31.1190   62.5440   48.1550 O.2    74  GLY74      -0.2717
      5  N         31.1980   64.4640   49.3310 N.am   75  ILE75      -0.1965
      6  CA        29.9650   64.0670   49.9880 C.3    75  ILE75       0.1727
      7  C         28.7920   64.2860   49.0280 C.2    75  ILE75       0.2616
      8  O         28.7140   65.3290   48.3430 O.2    75  ILE75      -0.2715
      9  CB        29.7700   64.6090   51.4420 C.3    75  ILE75       0.0290
     10  CG1       28.4710   65.3780   51.5830 C.3    75  ILE75       0.0022
     11  CG2       30.9780   65.2760   51.9640 C.3    75  ILE75       0.0023
     12  CD1       27.3940   64.5290   52.0720 C.3    75  ILE75       0.0001
     13  N         27.9520   63.2520   48.9200 N.am   76  LEU76      -0.1963
     14  CA        26.8130   63.2170   48.0000 C.3    76  LEU76       0.1728
     15  C         25.4570   63.5980   48.6020 C.2    76  LEU76       0.2616
     16  O         24.5960   64.1880   47.9210 O.2    76  LEU76      -0.2715
     17  CB        26.7000   61.7970   47.4350 C.3    76  LEU76       0.0311
     18  CG        27.3340   61.3890   46.1050 C.3    76  LEU76       0.0022
     19  CD1       28.4240   62.3090   45.6790 C.3    76  LEU76       0.0001
     20  CD2       27.8250   59.9510   46.1830 C.3    76  LEU76       0.0001
     21  N         25.2830   63.2730   49.8760 N.am   77  ALA77      -0.1963
     22  CA        24.0250   63.5100   50.5520 C.3    77  ALA77       0.1728
     23  C         24.1580   63.1100   51.9910 C.2    77  ALA77       0.2616
     24  O         25.1510   62.5150   52.3800 O.2    77  ALA77      -0.2715
     25  CB        22.9200   62.6600   49.8970 C.3    77  ALA77       0.0334
     26  N         23.1630   63.4830   52.7830 N.am   78  HIS78      -0.1959
     27  CA        23.1210   63.1050   54.1740 C.3    78  HIS78       0.1787
     28  C         21.7040   63.0830   54.7140 C.2    78  HIS78       0.2620
     29  O         20.8080   63.7160   54.1400 O.2    78  HIS78      -0.2715
     30  CB        24.1110   63.8900   55.0440 C.3    78  HIS78       0.0785
     31  CG        23.8610   65.3560   55.1100 C.ar   78  HIS78       0.0821
     32  ND1       24.8660   66.2950   55.0820 N.ar   78  HIS78      -0.2267
     33  CD2       22.7020   66.0510   55.2550 C.ar   78  HIS78       0.1154
     34  CE1       24.3030   67.5030   55.2060 C.ar   78  HIS78       0.1986
     35  NE2       22.9930   67.4040   55.3170 N.ar   78  HIS78      -0.2212
     36  N         21.4940   62.3020   55.7670 N.am   79  ALA79      -0.1977
     37  CA        20.1810   62.1470   56.3550 C.3    79  ALA79       0.1597
     38  C         20.3100   62.2050   57.8480 C.2    79  ALA79       0.2287
     39  O         21.4210   62.0820   58.3780 O.2    79  ALA79      -0.2864
     40  CB        19.5620   60.8060   55.9370 C.3    79  ALA79       0.0319
     41  N         19.8740   54.8640   44.0130 N.3   109  LEU109     -0.1231
     42  CA        20.7870   54.1880   44.9530 C.3   109  LEU109      0.1693
     43  C         21.1530   55.0840   46.1550 C.2   109  LEU109      0.2591
     44  O         21.0360   54.6810   47.3320 O.2   109  LEU109     -0.2718
     45  CB        22.0410   53.6700   44.2160 C.3   109  LEU109      0.0284
     46  CG        21.7640   52.4700   43.2710 C.3   109  LEU109      0.0019
     47  CD1       22.9090   52.2550   42.3590 C.3   109  LEU109      0.0001
     48  CD2       21.4530   51.1760   44.0410 C.3   109  LEU109      0.0001
     49  N         21.5350   56.3250   45.8600 N.am  110  VAL110     -0.1980
     50  CA        21.8880   57.2920   46.9100 C.3   110  VAL110      0.1595
     51  C         20.6640   57.4960   47.8120 C.2   110  VAL110      0.2287
     52  O         20.7570   57.3920   49.0400 O.2   110  VAL110     -0.2864
     53  CB        22.3600   58.6610   46.2790 C.3   110  VAL110      0.0276
     54  CG1       22.8760   59.6560   47.3850 C.3   110  VAL110      0.0022
     55  CG2       23.4360   58.4090   45.2520 C.3   110  VAL110      0.0022
     56  N         20.0200   54.6260   50.0890 N.3   113  HIS113     -0.1226
     57  CA        21.0230   54.6460   51.1620 C.3   113  HIS113      0.1752
     58  C         20.6480   55.6250   52.2880 C.2   113  HIS113      0.2595
     59  O         20.6830   55.2840   53.4870 O.2   113  HIS113     -0.2718
     60  CB        22.4150   54.9650   50.5640 C.3   113  HIS113      0.0759
     61  CG        23.4900   55.1070   51.5920 C.ar  113  HIS113      0.0818
     62  ND1       24.3090   54.0820   52.0080 N.ar  113  HIS113     -0.2268
     63  CD2       23.8220   56.1730   52.3590 C.ar  113  HIS113      0.1154
     64  CE1       25.0820   54.5410   52.9950 C.ar  113  HIS113      0.1986
     65  NE2       24.8280   55.8110   53.2450 N.ar  113  HIS113     -0.2212
     66  N         20.3300   56.8560   51.8900 N.am  114  GLU114     -0.1979
     67  CA        19.9320   57.9110   52.8200 C.3   114  GLU114      0.1602
     68  C         18.7040   57.5340   53.6480 C.2   114  GLU114      0.2287
     69  O         18.6760   57.7320   54.8820 O.2   114  GLU114     -0.2864
     70  CB        19.6620   59.2090   52.0440 C.3   114  GLU114      0.0415
     71  CG        20.8960   59.8450   51.3730 C.3   114  GLU114      0.1163
     72  CD        22.1290   59.8130   52.2480 C.2   114  GLU114      0.3649
     73  OE1       22.0100   60.0180   53.4830 O.co2 114  GLU114     -0.2457
     74  OE2       23.2210   59.5370   51.6910 O.co2 114  GLU114     -0.2457
     75  N         19.2810   55.5740   56.7440 N.3   117  HIS117     -0.1241
     76  CA        19.6570   56.4300   57.8750 C.3   117  HIS117      0.1621
     77  C         18.4090   57.0830   58.4430 C.2   117  HIS117      0.2264
     78  O         18.2670   57.1680   59.6610 O.2   117  HIS117     -0.2867
     79  CB        20.6240   57.5530   57.4490 C.3   117  HIS117      0.0745
     80  CG        22.0260   57.0930   57.1790 C.ar  117  HIS117      0.0817
     81  ND1       22.8120   56.4380   58.0900 N.ar  117  HIS117     -0.2268
     82  CD2       22.7590   57.1460   56.0380 C.ar  117  HIS117      0.1154
     83  CE1       23.9600   56.1210   57.5000 C.ar  117  HIS117      0.1986
     84  NE2       23.9770   56.5260   56.2500 N.ar  117  HIS117     -0.2212
     85  N         25.9810   52.7380   59.1650 N.3   123  HIS123     -0.1241
     86  CA        26.7380   52.1670   58.0670 C.3   123  HIS123      0.1621
     87  C         27.1320   50.7270   58.3530 C.2   123  HIS123      0.2264
     88  O         27.3830   50.3700   59.5000 O.2   123  HIS123     -0.2867
     89  CB        27.9980   52.9890   57.7960 C.3   123  HIS123      0.0745
     90  CG        27.7260   54.2620   57.0580 C.ar  123  HIS123      0.0817
     91  ND1       28.4630   55.4110   57.2090 N.ar  123  HIS123     -0.2268
     92  CD2       26.7470   54.5610   56.1640 C.ar  123  HIS123      0.1154
     93  CE1       27.9230   56.3530   56.4310 C.ar  123  HIS123      0.1986
     94  NE2       26.8780   55.8750   55.7780 N.ar  123  HIS123     -0.2212
     95  N         23.8610   47.9120   51.1050 N.3   130  LEU130     -0.1245
     96  CA        23.4940   49.2480   50.6520 C.3   130  LEU130      0.1561
     97  C         23.9680   50.2710   51.6830 C.2   130  LEU130      0.2260
     98  O         24.2880   51.3880   51.3430 O.2   130  LEU130     -0.2867
     99  CB        21.9810   49.3460   50.4830 C.3   130  LEU130      0.0270
    100  CG        21.4080   50.6810   49.9810 C.3   130  LEU130      0.0019
    101  CD1       21.7760   50.9430   48.5060 C.3   130  LEU130      0.0001
    102  CD2       19.8970   50.6540   50.1260 C.3   130  LEU130      0.0001
    103  N         26.6880   50.3490   53.1380 N.3   132  TYR132     -0.1228
    104  CA        28.1450   50.4380   53.0910 C.3   132  TYR132      0.1721
    105  C         28.4070   51.9430   52.8340 C.2   132  TYR132      0.2437
    106  O         27.7340   52.5600   51.9980 O.2   132  TYR132     -0.2733
    107  CB        28.6860   49.5930   51.9480 C.3   132  TYR132      0.0547
    108  CG        30.1980   49.4700   51.9590 C.ar  132  TYR132     -0.0200
    109  CD1       30.8530   48.6320   52.8660 C.ar  132  TYR132     -0.0009
    110  CD2       30.9680   50.2120   51.0770 C.ar  132  TYR132     -0.0009
    111  CE1       32.2430   48.5460   52.8800 C.ar  132  TYR132      0.0417
    112  CE2       32.3500   50.1350   51.0940 C.ar  132  TYR132      0.0417
    113  CZ        32.9730   49.3110   51.9850 C.ar  132  TYR132      0.1957
    114  OH        34.3480   49.2690   51.9610 O.3   132  TYR132     -0.2866
    115  N         29.4160   52.5310   53.5240 N.am  133  PRO133     -0.2718
    116  CA        29.7760   53.9580   53.4140 C.3   133  PRO133      0.1535
    117  C         30.0860   54.5950   52.0550 C.2   133  PRO133      0.2599
    118  O         29.7840   55.7760   51.8650 O.2   133  PRO133     -0.2715
    119  CB        30.9470   54.0910   54.3900 C.3   133  PRO133      0.0310
    120  CG        30.6980   53.0080   55.3890 C.3   133  PRO133      0.0237
    121  CD        30.2870   51.8620   54.5130 C.3   133  PRO133      0.0939
    122  N         30.6710   53.8690   51.1090 N.am  134  ASN134     -0.1959
    123  CA        30.9880   54.4690   49.8060 C.3   134  ASN134      0.1819
    124  C         30.0420   54.0350   48.7200 C.2   134  ASN134      0.2621
    125  O         29.5360   52.9320   48.7610 O.2   134  ASN134     -0.2715
    126  CB        32.4430   54.1560   49.4210 C.3   134  ASN134      0.1195
    127  CG        33.4370   54.7770   50.3940 C.2   134  ASN134      0.2630
    128  OD1       34.5040   54.2230   50.6760 O.2   134  ASN134     -0.2716
    129  ND2       33.0600   55.9040   50.9570 N.am  134  ASN134     -0.0877
    130  N         29.8060   54.9000   47.7430 N.am  135  TYR135     -0.1960
    131  CA        28.9020   54.6450   46.6190 C.3   135  TYR135      0.1771
    132  C         29.4340   53.6560   45.5900 C.2   135  TYR135      0.2619
    133  O         30.5830   53.7340   45.1950 O.2   135  TYR135     -0.2715
    134  CB        28.6230   55.9790   45.8900 C.3   135  TYR135      0.0574
    135  CG        27.8730   55.8790   44.5820 C.ar  135  TYR135     -0.0198
    136  CD1       26.4880   55.9200   44.5530 C.ar  135  TYR135     -0.0009
    137  CD2       28.5520   55.7550   43.3770 C.ar  135  TYR135     -0.0009
    138  CE1       25.7790   55.8370   43.3450 C.ar  135  TYR135      0.0417
    139  CE2       27.8680   55.6700   42.1680 C.ar  135  TYR135      0.0417
    140  CZ        26.4710   55.7090   42.1640 C.ar  135  TYR135      0.1957
    141  OH        25.7730   55.5880   40.9950 O.3   135  TYR135     -0.2866
    142  N         28.5560   52.8060   45.0800 N.am  136  ALA136     -0.1977
    143  CA        28.9000   51.8250   44.0450 C.3   136  ALA136      0.1597
    144  C         27.6100   51.6000   43.2910 C.2   136  ALA136      0.2287
    145  O         26.5350   51.5530   43.9060 O.2   136  ALA136     -0.2864
    146  CB        29.3660   50.5090   44.6670 C.3   136  ALA136      0.0319
    147  N         24.9940   49.4720   40.9930 N.3   138  ARG138     -0.1245
    148  CA        24.5590   48.0860   40.8800 C.3   138  ARG138      0.1563
    149  C         23.3160   48.2130   40.0330 C.2   138  ARG138      0.2260
    150  O         22.7270   49.2900   39.9880 O.2   138  ARG138     -0.2867
    151  CB        24.2070   47.5250   42.2540 C.3   138  ARG138      0.0307
    152  CG        25.2820   47.8110   43.2810 C.3   138  ARG138      0.0489
    153  CD        24.9060   47.3120   44.6550 C.3   138  ARG138      0.2205
    154  NE        25.5210   48.1000   45.7280 N.pl3 138  ARG138     -0.0865
    155  CZ        24.9850   48.2260   46.9400 C.cat 138  ARG138      0.5346
    156  NH1       23.8320   47.6110   47.2080 N.pl3 138  ARG138      0.1354
    157  NH2       25.5940   48.9640   47.8760 N.pl3 138  ARG138      0.1354
@<TRIPOS>BOND
     1   150   149    2
     2   149   148    1
     3   148   147    1
     4   148   151    1
     5   141   140    1
     6   140   139   ar
     7   140   138   ar
     8   139   137   ar
     9   151   152    1
    10    47    46    1
    11    46    48    1
    12    46    45    1
    13   152   153    1
    14   144   145    2
    15   144   143    1
    16   138   136   ar
    17   137   135   ar
    18    41    42    1
    19   143   146    1
    20   143   142    1
    21    45    42    1
    22   136   135   ar
    23   135   134    1
    24   153   154    1
    25    42    43    1
    26   142   132   am
    27   133   132    2
    28    55    53    1
    29   132   131    1
    30    19    18    1
    31   154   155    2
    32    49    43   am
    33    49    50    1
    34   134   131    1
    35    18    20    1
    36    18    17    1
    37    43    44    2
    38     1     2    1
    39    53    50    1
    40    53    54    1
    41   131   130    1
    42    50    51    1
    43   155   156    1
    44   155   157    1
    45    17    14    1
    46     2     3    1
    47   130   124   am
    48    51    52    2
    49    16    15    2
    50    14    15    1
    51    14    13    1
    52     4     3    2
    53     8     7    2
    54     3     5   am
    55   101   100    1
    56    15    21   am
    57   124   125    2
    58   124   123    1
    59    13     7   am
    60     7     6    1
    61     5     6    1
    62   126   123    1
    63   126   127    1
    64   123   122    1
    65    21    22    1
    66    25    22    1
    67   100   102    1
    68   100    99    1
    69     6     9    1
    70    56    57    1
    71   127   128    2
    72   127   129   am
    73    99    96    1
    74    22    23    1
    75    60    57    1
    76    60    61    1
    77    96    95    1
    78    96    97    1
    79   110   112   ar
    80   110   108   ar
    81   112   113   ar
    82   122   117   am
    83    57    58    1
    84    98    97    2
    85    71    70    1
    86    71    72    1
    87     9    10    1
    88     9    11    1
    89    10    12    1
    90    61    62   ar
    91    61    63   ar
    92    74    72   ar
    93   118   117    2
    94    66    58   am
    95    66    67    1
    96   107   108    1
    97   107   104    1
    98   108   109   ar
    99   114   113    1
   100   113   111   ar
   101    23    24    2
   102    23    26   am
   103   106   105    2
   104    62    64   ar
   105    70    67    1
   106   117   116    1
   107    72    73   ar
   108    58    59    2
   109    63    65   ar
   110    26    27    1
   111    67    68    1
   112   105   104    1
   113   105   115   am
   114   109   111   ar
   115    64    65   ar
   116   104   103    1
   117   116   115    1
   118   116   119    1
   119   115   121    1
   120    68    69    2
   121    29    28    2
   122    27    28    1
   123    27    30    1
   124   119   120    1
   125   121   120    1
   126    28    36   am
   127    30    31    1
   128    32    31   ar
   129    32    34   ar
   130    31    33   ar
   131    34    35   ar
   132    33    35   ar
   133    36    37    1
   134    94    92   ar
   135    94    93   ar
   136    40    37    1
   137    82    84   ar
   138    82    80   ar
   139    92    90   ar
   140    84    83   ar
   141    37    38    1
   142    93    91   ar
   143    75    76    1
   144    90    91   ar
   145    90    89    1
   146    80    79    1
   147    80    81   ar
   148    79    76    1
   149    83    81   ar
   150    89    86    1
   151    38    39    2
   152    76    77    1
   153    86    87    1
   154    86    85    1
   155    87    88    2
   156    77    78    2
