@<TRIPOS>MOLECULE
tmp/1a8gB00.pdb
 140 133 0 0 0
SMALL
GASTEIGER

@<TRIPOS>ATOM
      1  N         -6.2380   28.4420   21.4510 N.3     8  ARG8       -0.1245
      2  CA        -6.3300   27.8630   22.7890 C.3     8  ARG8        0.1563
      3  C         -6.5370   28.9080   23.8850 C.2     8  ARG8        0.2260
      4  O         -5.6980   29.8280   23.9430 O.2     8  ARG8       -0.2867
      5  CB        -5.0890   27.0870   23.1710 C.3     8  ARG8        0.0307
      6  CG        -5.0880   25.8090   22.3570 C.3     8  ARG8        0.0489
      7  CD        -4.4640   24.5940   23.0270 C.3     8  ARG8        0.2205
      8  NE        -4.0190   23.6970   21.9610 N.pl3   8  ARG8       -0.0865
      9  CZ        -3.1870   22.6600   22.1510 C.cat   8  ARG8        0.5346
     10  NH1       -2.7030   22.3460   23.3540 N.pl3   8  ARG8        0.1354
     11  NH2       -2.7910   21.9640   21.0880 N.pl3   8  ARG8        0.1354
     12  N         -4.6450   26.2450   30.4810 N.3    23  LEU23      -0.1245
     13  CA        -5.7110   26.1430   29.5170 C.3    23  LEU23       0.1561
     14  C         -7.0650   26.1750   30.2440 C.2    23  LEU23       0.2260
     15  O         -7.3350   25.2630   31.0320 O.2    23  LEU23      -0.2867
     16  CB        -5.4130   24.8390   28.7510 C.3    23  LEU23       0.0270
     17  CG        -6.0300   24.4020   27.4040 C.3    23  LEU23       0.0019
     18  CD1       -7.4190   24.0290   27.6670 C.3    23  LEU23       0.0001
     19  CD2       -6.0080   25.4870   26.3560 C.3    23  LEU23       0.0001
     20  N        -10.3880   25.2180   30.5530 N.3    25  ASP25      -0.1239
     21  CA       -11.0770   24.0760   30.0300 C.3    25  ASP25       0.1674
     22  C        -12.4740   23.6930   30.5670 C.2    25  ASP25       0.2266
     23  O        -12.5510   22.9270   31.5260 O.2    25  ASP25      -0.2867
     24  CB       -10.0630   22.9930   30.2040 C.3    25  ASP25       0.1410
     25  CG       -10.4020   21.6620   29.5760 C.2    25  ASP25       0.3668
     26  OD1      -11.2940   21.5530   28.7600 O.co2  25  ASP25      -0.2456
     27  OD2       -9.7190   20.7060   29.8840 O.co2  25  ASP25      -0.2456
     28  N        -14.3730   21.3300   29.5760 N.3    27  GLY27      -0.1210
     29  CA       -14.5170   19.8790   29.4900 C.3    27  GLY27       0.1956
     30  C        -13.6730   19.1810   30.5080 C.2    27  GLY27       0.2612
     31  O        -13.4010   17.9920   30.3840 O.2    27  GLY27      -0.2717
     32  N        -13.1840   19.8990   31.5160 N.am   28  ALA28      -0.1965
     33  CA       -12.3380   19.2940   32.5310 C.3    28  ALA28       0.1728
     34  C        -13.0890   19.3690   33.8220 C.2    28  ALA28       0.2616
     35  O        -13.4000   20.4820   34.2240 O.2    28  ALA28      -0.2715
     36  CB       -11.0460   20.0710   32.7670 C.3    28  ALA28       0.0334
     37  N        -13.4250   18.3070   34.5300 N.am   29  ASP29      -0.1957
     38  CA       -14.0930   18.4240   35.8200 C.3    29  ASP29       0.1840
     39  C        -13.1650   18.8520   36.9000 C.2    29  ASP29       0.2622
     40  O        -13.6760   19.4100   37.8700 O.2    29  ASP29      -0.2715
     41  CB       -14.6300   17.1630   36.3560 C.3    29  ASP29       0.1450
     42  CG       -15.5520   16.3580   35.4740 C.2    29  ASP29       0.3671
     43  OD1      -16.1910   16.8580   34.5360 O.co2  29  ASP29      -0.2456
     44  OD2      -15.6380   15.1840   35.7970 O.co2  29  ASP29      -0.2456
     45  N        -11.8530   18.5720   36.6730 N.am   30  ASP30      -0.1971
     46  CA       -10.7210   18.8130   37.5560 C.3    30  ASP30       0.1709
     47  C         -9.5720   19.6270   36.9590 C.2    30  ASP30       0.2293
     48  O         -9.3410   19.6710   35.7490 O.2    30  ASP30      -0.2864
     49  CB       -10.1040   17.5270   38.0090 C.3    30  ASP30       0.1436
     50  CG       -10.9370   16.7290   38.9840 C.2    30  ASP30       0.3671
     51  OD1      -11.3620   17.3330   39.9720 O.co2  30  ASP30      -0.2456
     52  OD2      -11.1410   15.5190   38.7650 O.co2  30  ASP30      -0.2456
     53  N         -5.6960   19.8910   36.7080 N.3    32  VAL32      -0.1245
     54  CA        -4.4970   19.0960   36.8070 C.3    32  VAL32       0.1561
     55  C         -3.3570   19.9370   36.2220 C.2    32  VAL32       0.2260
     56  O         -3.4160   20.5290   35.1230 O.2    32  VAL32      -0.2867
     57  CB        -4.7270   17.6870   36.0750 C.3    32  VAL32       0.0252
     58  CG1       -5.1070   17.7520   34.6060 C.3    32  VAL32       0.0019
     59  CG2       -3.4210   16.9340   36.2480 C.3    32  VAL32       0.0019
     60  N         -4.4110    9.5940   43.4910 N.3    45  LYS45      -0.1231
     61  CA        -5.7090    9.5750   42.8510 C.3    45  LYS45       0.1693
     62  C         -5.4570    9.2280   41.4000 C.2    45  LYS45       0.2592
     63  O         -4.3310    9.3760   40.9260 O.2    45  LYS45      -0.2718
     64  CB        -6.3620   10.9510   42.9300 C.3    45  LYS45       0.0285
     65  CG        -7.7960   11.0370   42.4370 C.3    45  LYS45       0.0035
     66  CD        -8.2280   12.4800   42.4120 C.3    45  LYS45       0.0206
     67  CE        -9.6060   12.6340   41.8150 C.3    45  LYS45       0.1093
     68  NZ        -9.8810   14.0460   41.6670 N.3    45  LYS45      -0.1314
     69  N         -6.4690    8.7620   40.6720 N.am   46  MET46      -0.1965
     70  CA        -6.3300    8.4250   39.2650 C.3    46  MET46       0.1736
     71  C         -7.4310    9.2060   38.6000 C.2    46  MET46       0.2616
     72  O         -8.5290    9.2360   39.1620 O.2    46  MET46      -0.2715
     73  CB        -6.5310    6.9320   39.0540 C.3    46  MET46       0.0427
     74  CG        -5.1960    6.2390   39.2430 C.3    46  MET46       0.0599
     75  SD        -5.3590    4.5270   39.7740 S.3    46  MET46      -0.1393
     76  CE        -5.1360    4.7100   41.5320 C.3    46  MET46       0.0692
     77  N         -7.1820    9.9060   37.4960 N.am   47  ILE47      -0.1963
     78  CA        -8.2040   10.6940   36.8190 C.3    47  ILE47       0.1727
     79  C         -8.2550   10.0710   35.4520 C.2    47  ILE47       0.2617
     80  O         -7.2790    9.4570   35.0040 O.2    47  ILE47      -0.2715
     81  CB        -7.8850   12.2220   36.5710 C.3    47  ILE47       0.0290
     82  CG1       -6.3780   12.4530   36.4050 C.3    47  ILE47       0.0022
     83  CG2       -8.4670   13.0520   37.6870 C.3    47  ILE47       0.0023
     84  CD1       -5.9600   13.5890   35.4760 C.3    47  ILE47       0.0001
     85  N         -9.3530   10.2770   34.7390 N.am   48  GLY48      -0.1940
     86  CA        -9.4680    9.7420   33.3930 C.3    48  GLY48       0.2014
     87  C         -9.5700   10.8680   32.3830 C.2    48  GLY48       0.2639
     88  O        -10.0470   11.9740   32.7050 O.2    48  GLY48      -0.2714
     89  N         -9.1550   10.5390   31.1840 N.am   49  GLY49      -0.1939
     90  CA        -9.0900   11.4490   30.0630 C.3    49  GLY49       0.2014
     91  C         -9.2250   10.5670   28.8550 C.2    49  GLY49       0.2638
     92  O         -9.5200    9.3710   29.0310 O.2    49  GLY49      -0.2714
     93  N         -8.9930   11.0450   27.6360 N.am   50  ILE50      -0.1977
     94  CA        -9.3190   10.1830   26.5010 C.3    50  ILE50       0.1596
     95  C         -8.3970    9.0100   26.2300 C.2    50  ILE50       0.2287
     96  O         -8.9010    7.9890   25.7500 O.2    50  ILE50      -0.2864
     97  CB        -9.4310   10.9020   25.1020 C.3    50  ILE50       0.0276
     98  CG1       -8.2380   11.7800   24.9340 C.3    50  ILE50       0.0022
     99  CG2      -10.7870   11.5820   24.9240 C.3    50  ILE50       0.0022
    100  CD1       -7.1860   11.0930   24.0410 C.3    50  ILE50       0.0001
    101  N         -6.1170    6.5570   31.9260 N.3    53  PHE53      -0.1241
    102  CA        -6.0920    7.1480   33.2420 C.3    53  PHE53       0.1605
    103  C         -4.6440    7.5430   33.5730 C.2    53  PHE53       0.2264
    104  O         -3.6950    6.9550   33.0180 O.2    53  PHE53      -0.2867
    105  CB        -6.5760    6.1310   34.2790 C.3    53  PHE53       0.0534
    106  CG        -8.0830    5.9170   34.5380 C.ar   53  PHE53      -0.0203
    107  CD1       -8.9540    5.4550   33.5140 C.ar   53  PHE53      -0.0042
    108  CD2       -8.5930    6.2060   35.8210 C.ar   53  PHE53      -0.0042
    109  CE1      -10.3160    5.2930   33.7690 C.ar   53  PHE53      -0.0003
    110  CE2       -9.9520    6.0440   36.0690 C.ar   53  PHE53      -0.0003
    111  CZ       -10.8050    5.5930   35.0440 C.ar   53  PHE53      -0.0000
    112  N          0.2840   15.8350   33.1960 N.3    80  THR80      -0.1204
    113  CA        -0.5610   16.3020   32.1220 C.3    80  THR80       0.1979
    114  C          0.4090   16.8600   31.1140 C.2    80  THR80       0.2460
    115  O          1.4780   17.3230   31.5370 O.2    80  THR80      -0.2732
    116  CB        -1.5090   17.3560   32.6500 C.3    80  THR80       0.1783
    117  OG1       -2.1840   17.8810   31.5190 O.3    80  THR80      -0.2211
    118  CG2       -0.8160   18.4340   33.4330 C.3    80  THR80       0.0376
    119  N          0.1680   16.8290   29.7970 N.am   81  PRO81      -0.2717
    120  CA         0.9540   17.6390   28.8520 C.3    81  PRO81       0.1535
    121  C          0.6760   19.1510   28.9310 C.2    81  PRO81       0.2598
    122  O          1.5550   19.9100   28.5820 O.2    81  PRO81      -0.2715
    123  CB         0.6280   17.0130   27.4940 C.3    81  PRO81       0.0310
    124  CG        -0.7550   16.4480   27.6990 C.3    81  PRO81       0.0237
    125  CD        -0.7030   15.8780   29.1130 C.3    81  PRO81       0.0939
    126  N         -0.5110   19.6460   29.3390 N.am   82  VAL82      -0.1978
    127  CA        -0.8240   21.0740   29.4350 C.3    82  VAL82       0.1596
    128  C         -1.3870   21.3030   30.8150 C.2    82  VAL82       0.2287
    129  O         -1.9940   20.4060   31.3430 O.2    82  VAL82      -0.2864
    130  CB        -1.9390   21.6290   28.4360 C.3    82  VAL82       0.0276
    131  CG1       -1.3030   22.1560   27.2100 C.3    82  VAL82       0.0022
    132  CG2       -2.8250   20.5740   27.8760 C.3    82  VAL82       0.0022
    133  N         -4.2930   22.5730   33.1720 N.3    84  ILE84      -0.1245
    134  CA        -5.7120   22.5960   32.8360 C.3    84  ILE84       0.1561
    135  C         -6.4310   23.2380   34.0010 C.2    84  ILE84       0.2260
    136  O         -6.2200   22.7620   35.1220 O.2    84  ILE84      -0.2867
    137  CB        -6.1640   21.0950   32.6010 C.3    84  ILE84       0.0252
    138  CG1       -5.7930   20.7710   31.1880 C.3    84  ILE84       0.0019
    139  CG2       -7.6640   20.8130   32.7940 C.3    84  ILE84       0.0019
    140  CD1       -5.3470   19.2990   31.1370 C.3    84  ILE84       0.0001
@<TRIPOS>BOND
     1    11     9    1
     2     1     2    1
     3     8     9    2
     4     8     7    1
     5     9    10    1
     6     6     7    1
     7     6     5    1
     8     2     5    1
     9     2     3    1
    10     3     4    2
    11   100    98    1
    12    99    97    1
    13    98    97    1
    14    97    94    1
    15    96    95    2
    16    95    94    1
    17    19    17    1
    18    94    93    1
    19   131   130    1
    20    17    18    1
    21    17    16    1
    22   123   124    1
    23   123   120    1
    24    93    91   am
    25   124   125    1
    26   132   130    1
    27   130   127    1
    28   122   121    2
    29    16    13    1
    30    26    25   ar
    31   120   121    1
    32   120   119    1
    33    91    92    2
    34    91    90    1
    35   121   126   am
    36   125   119    1
    37   126   127    1
    38   127   128    1
    39    29    28    1
    40    29    30    1
    41    13    14    1
    42    13    12    1
    43    25    27   ar
    44    25    24    1
    45   119   114   am
    46    21    24    1
    47    21    20    1
    48    21    22    1
    49    90    89    1
    50    14    15    2
    51    31    30    2
    52    30    32   am
    53    22    23    2
    54   128   129    2
    55   114   115    2
    56   114   113    1
    57   140   138    1
    58    89    87   am
    59   138   137    1
    60    32    33    1
    61   117   116    1
    62   101   102    1
    63   113   116    1
    64   113   112    1
    65    87    88    2
    66    87    86    1
    67    33    36    1
    68    33    34    1
    69   137   139    1
    70   137   134    1
    71   116   118    1
    72   134   133    1
    73   134   135    1
    74   104   103    2
    75   102   103    1
    76   102   105    1
    77    86    85    1
    78   107   109   ar
    79   107   106   ar
    80   109   111   ar
    81    34    35    2
    82    34    37   am
    83   135   136    2
    84   105   106    1
    85    37    38    1
    86    43    42   ar
    87   106   108   ar
    88    58    57    1
    89    85    79   am
    90    80    79    2
    91   111   110   ar
    92    56    55    2
    93    79    78    1
    94    42    44   ar
    95    42    41    1
    96    84    82    1
    97    48    47    2
    98    38    41    1
    99    38    39    1
   100   108   110   ar
   101    57    59    1
   102    57    54    1
   103    55    54    1
   104    82    81    1
   105    81    78    1
   106    81    83    1
   107    45    39   am
   108    45    46    1
   109    53    54    1
   110    78    77    1
   111    39    40    2
   112    47    46    1
   113    77    71   am
   114    46    49    1
   115    49    50    1
   116    71    72    2
   117    71    70    1
   118    52    50   ar
   119    50    51   ar
   120    73    74    1
   121    73    70    1
   122    74    75    1
   123    70    69    1
   124    75    76    1
   125    69    62   am
   126    63    62    2
   127    62    61    1
   128    68    67    1
   129    67    66    1
   130    66    65    1
   131    65    64    1
   132    61    64    1
   133    61    60    1
