@<TRIPOS>MOLECULE
tmp/1a8jB00.pdb
 95 93 0 0 0
SMALL
GASTEIGER

@<TRIPOS>ATOM
      1  N         29.8580  -33.5560   93.8180 N.3    33  TYR33      -0.1241
      2  CA        30.1470  -32.2890   93.1620 C.3    33  TYR33       0.1605
      3  C         30.8030  -31.3520   94.1740 C.2    33  TYR33       0.2264
      4  O         30.1270  -30.6530   94.9380 O.2    33  TYR33      -0.2867
      5  CB        28.8720  -31.6490   92.5910 C.3    33  TYR33       0.0534
      6  CG        29.1090  -30.6820   91.4370 C.ar   33  TYR33      -0.0201
      7  CD1       30.2670  -29.9010   91.3750 C.ar   33  TYR33      -0.0009
      8  CD2       28.1450  -30.5080   90.4350 C.ar   33  TYR33      -0.0009
      9  CE1       30.4540  -28.9630   90.3510 C.ar   33  TYR33       0.0417
     10  CE2       28.3240  -29.5700   89.4070 C.ar   33  TYR33       0.0417
     11  CZ        29.4770  -28.7980   89.3780 C.ar   33  TYR33       0.1957
     12  OH        29.6280  -27.8270   88.4140 O.3    33  TYR33      -0.2866
     13  N         33.8140  -28.4090   94.2920 N.3    35  SER35      -0.1217
     14  CA        34.7040  -27.5530   93.5130 C.3    35  SER35       0.1889
     15  C         35.7460  -26.8930   94.4340 C.2    35  SER35       0.2288
     16  O         35.5540  -26.8420   95.6520 O.2    35  SER35      -0.2866
     17  CB        33.8860  -26.4870   92.7860 C.3    35  SER35       0.2089
     18  OG        32.6360  -26.2930   93.4150 O.3    35  SER35      -0.2183
     19  N         37.6040  -23.3580   94.3640 N.3    37  TYR37      -0.1241
     20  CA        37.9620  -22.0180   93.9080 C.3    37  TYR37       0.1605
     21  C         39.2380  -21.5020   94.5730 C.2    37  TYR37       0.2264
     22  O         39.4050  -21.6390   95.7820 O.2    37  TYR37      -0.2867
     23  CB        36.8190  -21.0290   94.2060 C.3    37  TYR37       0.0534
     24  CG        35.4900  -21.3740   93.5570 C.ar   37  TYR37      -0.0201
     25  CD1       34.6050  -22.2790   94.1530 C.ar   37  TYR37      -0.0009
     26  CD2       35.1160  -20.7930   92.3490 C.ar   37  TYR37      -0.0009
     27  CE1       33.3770  -22.5950   93.5580 C.ar   37  TYR37       0.0417
     28  CE2       33.8940  -21.1020   91.7480 C.ar   37  TYR37       0.0417
     29  CZ        33.0320  -22.0020   92.3550 C.ar   37  TYR37       0.1957
     30  OH        31.8410  -22.3040   91.7350 O.3    37  TYR37      -0.2866
     31  N         37.4470  -21.2710   89.5900 N.3    47  VAL47      -0.1245
     32  CA        37.4070  -22.7290   89.6780 C.3    47  VAL47       0.1561
     33  C         38.7810  -23.3300   89.3650 C.2    47  VAL47       0.2260
     34  O         39.2140  -23.2960   88.2170 O.2    47  VAL47      -0.2867
     35  CB        36.3800  -23.2870   88.6590 C.3    47  VAL47       0.0252
     36  CG1       36.5190  -24.7820   88.5460 C.3    47  VAL47       0.0019
     37  CG2       34.9640  -22.9010   89.0720 C.3    47  VAL47       0.0019
     38  N         37.2930  -29.1300   90.0560 N.3    50  TYR50      -0.1241
     39  CA        35.8490  -29.2700   90.1400 C.3    50  TYR50       0.1605
     40  C         35.4790  -30.7380   90.1130 C.2    50  TYR50       0.2264
     41  O         36.2570  -31.5630   89.6390 O.2    50  TYR50      -0.2867
     42  CB        35.1720  -28.5270   88.9890 C.3    50  TYR50       0.0534
     43  CG        35.2010  -29.2640   87.6720 C.ar   50  TYR50      -0.0201
     44  CD1       36.3300  -29.2340   86.8560 C.ar   50  TYR50      -0.0009
     45  CD2       34.0950  -29.9900   87.2400 C.ar   50  TYR50      -0.0009
     46  CE1       36.3560  -29.9130   85.6390 C.ar   50  TYR50       0.0417
     47  CE2       34.1080  -30.6760   86.0230 C.ar   50  TYR50       0.0417
     48  CZ        35.2410  -30.6340   85.2330 C.ar   50  TYR50       0.1957
     49  OH        35.2610  -31.3390   84.0550 O.3    50  TYR50      -0.2866
     50  N         33.4040  -26.2090   97.6710 N.3    90  SER90      -0.1202
     51  CA        31.9450  -26.2720   97.7030 C.3    90  SER90       0.2020
     52  C         31.3130  -27.5440   97.1700 C.2    90  SER90       0.2619
     53  O         31.9460  -28.3270   96.4770 O.2    90  SER90      -0.2717
     54  CB        31.3560  -25.1000   96.9290 C.3    90  SER90       0.2103
     55  OG        30.1600  -25.4970   96.2810 O.3    90  SER90      -0.2182
     56  N         30.0380  -27.7180   97.5040 N.am   91  SER91      -0.1937
     57  CA        29.2410  -28.8660   97.0780 C.3    91  SER91       0.2055
     58  C         27.8990  -28.3180   96.6060 C.2    91  SER91       0.2643
     59  O         27.2760  -27.5240   97.3100 O.2    91  SER91      -0.2714
     60  CB        29.0200  -29.8410   98.2520 C.3    91  SER91       0.2130
     61  OG        27.6380  -30.0540   98.5200 O.3    91  SER91      -0.2179
     62  N         27.4490  -28.7220   95.4230 N.am   92  TYR92      -0.1973
     63  CA        26.1690  -28.2260   94.9280 C.3    92  TYR92       0.1639
     64  C         25.0160  -29.0000   95.5400 C.2    92  TYR92       0.2290
     65  O         25.0610  -30.2280   95.6120 O.2    92  TYR92      -0.2864
     66  CB        26.0970  -28.3430   93.4120 C.3    92  TYR92       0.0560
     67  CG        25.0910  -27.4060   92.7880 C.ar   92  TYR92      -0.0198
     68  CD1       25.2820  -26.0270   92.8270 C.ar   92  TYR92      -0.0009
     69  CD2       23.9640  -27.9010   92.1280 C.ar   92  TYR92      -0.0009
     70  CE1       24.3840  -25.1680   92.2270 C.ar   92  TYR92       0.0417
     71  CE2       23.0530  -27.0440   91.5210 C.ar   92  TYR92       0.0417
     72  CZ        23.2710  -25.6790   91.5750 C.ar   92  TYR92       0.1957
     73  OH        22.3740  -24.8200   90.9860 O.3    92  TYR92      -0.2866
     74  N         24.2010  -23.8510   97.4510 N.3    98  PHE98      -0.1241
     75  CA        25.5190  -23.8550   96.8250 C.3    98  PHE98       0.1605
     76  C         26.5810  -23.7530   97.9240 C.2    98  PHE98       0.2264
     77  O         27.6750  -23.2300   97.6860 O.2    98  PHE98      -0.2867
     78  CB        25.6770  -22.6610   95.8700 C.3    98  PHE98       0.0534
     79  CG        24.6460  -22.5990   94.7720 C.ar   98  PHE98      -0.0203
     80  CD1       23.4000  -23.1940   94.9200 C.ar   98  PHE98      -0.0042
     81  CD2       24.9180  -21.9140   93.5920 C.ar   98  PHE98      -0.0042
     82  CE1       22.4430  -23.1070   93.9180 C.ar   98  PHE98      -0.0003
     83  CE2       23.9610  -21.8200   92.5770 C.ar   98  PHE98      -0.0003
     84  CZ        22.7200  -22.4190   92.7440 C.ar   98  PHE98      -0.0000
     85  N         29.2050  -23.0620  100.6540 N.3   100  PHE100     -0.1241
     86  CA        30.5900  -22.7170  100.4000 C.3   100  PHE100      0.1605
     87  C         31.4520  -22.9630  101.6350 C.2   100  PHE100      0.2264
     88  O         31.0440  -22.6550  102.7550 O.2   100  PHE100     -0.2867
     89  CB        30.6800  -21.2460   99.9780 C.3   100  PHE100      0.0534
     90  CG        31.0600  -21.0410   98.5280 C.ar  100  PHE100     -0.0203
     91  CD1       32.3600  -21.2840   98.0880 C.ar  100  PHE100     -0.0042
     92  CD2       30.1240  -20.5750   97.6050 C.ar  100  PHE100     -0.0042
     93  CE1       32.7170  -21.0630   96.7590 C.ar  100  PHE100     -0.0003
     94  CE2       30.4810  -20.3520   96.2700 C.ar  100  PHE100     -0.0003
     95  CZ        31.7790  -20.5980   95.8520 C.ar  100  PHE100     -0.0000
@<TRIPOS>BOND
     1    49    48    1
     2    48    46   ar
     3    48    47   ar
     4    46    44   ar
     5    47    45   ar
     6    44    43   ar
     7    45    43   ar
     8    43    42    1
     9    34    33    2
    10    12    11    1
    11    36    35    1
    12    35    37    1
    13    35    32    1
    14    42    39    1
    15    33    32    1
    16    11    10   ar
    17    11     9   ar
    18    10     8   ar
    19    31    32    1
    20    41    40    2
    21    38    39    1
    22    40    39    1
    23     9     7   ar
    24     8     6   ar
    25    73    72    1
    26     7     6   ar
    27     6     5    1
    28    71    72   ar
    29    71    69   ar
    30    72    70   ar
    31    30    29    1
    32    28    26   ar
    33    28    29   ar
    34    69    67   ar
    35    70    68   ar
    36    26    24   ar
    37    29    27   ar
    38    83    84   ar
    39    83    81   ar
    40     5     2    1
    41    84    82   ar
    42    17    18    1
    43    17    14    1
    44    67    68   ar
    45    67    66    1
    46     2     1    1
    47     2     3    1
    48    66    63    1
    49    14    13    1
    50    14    15    1
    51    24    25   ar
    52    24    23    1
    53    27    25   ar
    54    81    79   ar
    55    20    23    1
    56    20    19    1
    57    20    21    1
    58    82    80   ar
    59     3     4    2
    60    15    16    2
    61    21    22    2
    62    79    80   ar
    63    79    78    1
    64    63    62    1
    65    63    64    1
    66    62    58   am
    67    64    65    2
    68    95    94   ar
    69    95    93   ar
    70    78    75    1
    71    94    92   ar
    72    55    54    1
    73    53    52    2
    74    58    57    1
    75    58    59    2
    76    93    91   ar
    77    75    74    1
    78    75    76    1
    79    54    51    1
    80    57    56    1
    81    57    60    1
    82    52    56   am
    83    52    51    1
    84    92    90   ar
    85    50    51    1
    86    77    76    2
    87    91    90   ar
    88    60    61    1
    89    90    89    1
    90    89    86    1
    91    86    85    1
    92    86    87    1
    93    87    88    2
