@<TRIPOS>MOLECULE
tmp/1a8pA00.pdb
 184 181 0 0 0
SMALL
GASTEIGER

@<TRIPOS>ATOM
      1  N         31.9550  -13.9980    7.5010 N.3    36  PHE36      -0.1241
      2  CA        32.4310  -15.0400    8.3950 C.3    36  PHE36       0.1605
      3  C         33.9560  -15.0720    8.4840 C.2    36  PHE36       0.2264
      4  O         34.6720  -14.5390    7.6330 O.2    36  PHE36      -0.2867
      5  CB        31.8770  -16.4200    7.9990 C.3    36  PHE36       0.0534
      6  CG        32.4480  -16.9790    6.7300 C.ar   36  PHE36      -0.0203
      7  CD1       31.8470  -16.7020    5.5030 C.ar   36  PHE36      -0.0042
      8  CD2       33.5560  -17.8320    6.7600 C.ar   36  PHE36      -0.0042
      9  CE1       32.3370  -17.2680    4.3210 C.ar   36  PHE36      -0.0003
     10  CE2       34.0520  -18.4010    5.5870 C.ar   36  PHE36      -0.0003
     11  CZ        33.4410  -18.1200    4.3640 C.ar   36  PHE36      -0.0000
     12  N         37.4120  -23.7350   12.1330 N.3    50  ARG50      -0.1231
     13  CA        36.1120  -23.8550   11.4930 C.3    50  ARG50       0.1694
     14  C         35.5680  -22.4900   11.1200 C.2    50  ARG50       0.2592
     15  O         35.8620  -21.4870   11.7700 O.2    50  ARG50      -0.2718
     16  CB        35.1060  -24.5620   12.4090 C.3    50  ARG50       0.0321
     17  CG        35.4030  -26.0410   12.6700 C.3    50  ARG50       0.0489
     18  CD        35.0870  -26.9110   11.4710 C.3    50  ARG50       0.2205
     19  NE        35.1850  -28.3360   11.7910 N.pl3  50  ARG50      -0.0865
     20  CZ        36.2970  -29.0580   11.6790 C.cat  50  ARG50       0.5346
     21  NH1       37.4230  -28.5000   11.2520 N.pl3  50  ARG50       0.1354
     22  NH2       36.2900  -30.3390   12.0120 N.pl3  50  ARG50       0.1354
     23  N         34.7700  -22.4760   10.0600 N.am   51  ALA51      -0.1966
     24  CA        34.1450  -21.2650    9.5450 C.3    51  ALA51       0.1728
     25  C         32.9880  -20.8890   10.4560 C.2    51  ALA51       0.2616
     26  O         32.1970  -21.7470   10.8240 O.2    51  ALA51      -0.2715
     27  CB        33.6470  -21.5200    8.1430 C.3    51  ALA51       0.0334
     28  N         32.9100  -19.6120   10.8500 N.am   52  TYR52      -0.1960
     29  CA        31.8450  -19.1230   11.7300 C.3    52  TYR52       0.1771
     30  C         31.4810  -17.7040   11.3840 C.2    52  TYR52       0.2620
     31  O         32.3660  -16.8540   11.2720 O.2    52  TYR52      -0.2715
     32  CB        32.2910  -19.1270   13.1930 C.3    52  TYR52       0.0574
     33  CG        31.9270  -20.3650   13.9730 C.ar   52  TYR52      -0.0198
     34  CD1       32.7030  -21.5160   13.9090 C.ar   52  TYR52      -0.0009
     35  CD2       30.8140  -20.3750   14.7920 C.ar   52  TYR52      -0.0009
     36  CE1       32.3660  -22.6440   14.6500 C.ar   52  TYR52       0.0417
     37  CE2       30.4720  -21.4800   15.5200 C.ar   52  TYR52       0.0417
     38  CZ        31.2420  -22.6150   15.4510 C.ar   52  TYR52       0.1957
     39  OH        30.8680  -23.7210   16.1720 O.3    52  TYR52      -0.2866
     40  N         30.1810  -17.4520   11.2260 N.am   53  SER53      -0.1950
     41  CA        29.6830  -16.1180   10.9220 C.3    53  SER53       0.1924
     42  C         29.8090  -15.2830   12.1860 C.2    53  SER53       0.2314
     43  O         29.6570  -15.8020   13.2960 O.2    53  SER53      -0.2863
     44  CB        28.2060  -16.1750   10.5120 C.3    53  SER53       0.2116
     45  OG        28.0190  -16.7810    9.2430 O.3    53  SER53      -0.2180
     46  N         27.5420  -17.5870   17.5820 N.3    66  PHE66      -0.1227
     47  CA        26.3680  -18.4200   17.8380 C.3    66  PHE66       0.1736
     48  C         26.7700  -19.8000   17.3020 C.2    66  PHE66       0.2596
     49  O         26.9250  -19.9850   16.1030 O.2    66  PHE66      -0.2718
     50  CB        25.1770  -17.8300   17.0660 C.3    66  PHE66       0.0547
     51  CG        23.9000  -18.6070   17.2070 C.ar   66  PHE66      -0.0202
     52  CD1       23.6220  -19.3220   18.3630 C.ar   66  PHE66      -0.0042
     53  CD2       22.9760  -18.6330   16.1640 C.ar   66  PHE66      -0.0042
     54  CE1       22.4500  -20.0540   18.4770 C.ar   66  PHE66      -0.0003
     55  CE2       21.8040  -19.3610   16.2720 C.ar   66  PHE66      -0.0003
     56  CZ        21.5410  -20.0750   17.4260 C.ar   66  PHE66      -0.0000
     57  N         26.8800  -20.7790   18.1920 N.am   67  SER67      -0.1938
     58  CA        27.3430  -22.1030   17.8080 C.3    67  SER67       0.2055
     59  C         26.4340  -23.2970   18.0500 C.2    67  SER67       0.2642
     60  O         25.5810  -23.2870   18.9300 O.2    67  SER67      -0.2714
     61  CB        28.6710  -22.3540   18.5200 C.3    67  SER67       0.2130
     62  OG        29.1960  -23.6390   18.2340 O.3    67  SER67      -0.2179
     63  N         26.6710  -24.3500   17.2750 N.am   68  ILE68      -0.1977
     64  CA        25.9320  -25.5980   17.4010 C.3    68  ILE68       0.1596
     65  C         26.7990  -26.5110   18.2770 C.2    68  ILE68       0.2287
     66  O         27.9680  -26.2290   18.5040 O.2    68  ILE68      -0.2864
     67  CB        25.7110  -26.2670   16.0120 C.3    68  ILE68       0.0276
     68  CG1       24.7480  -27.4480   16.1240 C.3    68  ILE68       0.0022
     69  CG2       27.0330  -26.7430   15.4220 C.3    68  ILE68       0.0022
     70  CD1       23.2950  -27.0510   16.2760 C.3    68  ILE68       0.0001
     71  N         27.6310  -30.3900   18.2740 N.3    70  VAL70      -0.1245
     72  CA        27.5260  -31.6640   17.5870 C.3    70  VAL70       0.1561
     73  C         28.1590  -32.7430   18.4600 C.2    70  VAL70       0.2260
     74  O         29.1940  -32.5160   19.0850 O.2    70  VAL70      -0.2867
     75  CB        28.2250  -31.6090   16.2080 C.3    70  VAL70       0.0252
     76  CG1       28.0300  -32.9200   15.4560 C.3    70  VAL70       0.0019
     77  CG2       27.6980  -30.4310   15.3940 C.3    70  VAL70       0.0019
     78  N         29.8840  -35.5410   17.9640 N.3    72  ASN72      -0.1225
     79  CA        31.2990  -35.7050   17.6510 C.3    72  ASN72       0.1785
     80  C         31.7660  -34.3170   17.2170 C.2    72  ASN72       0.2598
     81  O         31.0510  -33.6140   16.5070 O.2    72  ASN72      -0.2718
     82  CB        31.4890  -36.6980   16.4940 C.3    72  ASN72       0.1169
     83  CG        30.6870  -36.3160   15.2430 C.2    72  ASN72       0.2627
     84  OD1       29.4590  -36.2990   15.2650 O.2    72  ASN72      -0.2716
     85  ND2       31.3860  -36.0110   14.1530 N.am   72  ASN72      -0.0877
     86  N         32.9300  -33.8890   17.6840 N.am   73  GLY73      -0.1943
     87  CA        33.4180  -32.5910   17.2780 C.3    73  GLY73       0.1998
     88  C         34.0000  -32.6910   15.8820 C.2    73  GLY73       0.2481
     89  O         33.2770  -32.8610   14.9130 O.2    73  GLY73      -0.2729
     90  N         35.3270  -32.6580   15.7640 N.am   74  PRO74      -0.2715
     91  CA        36.1520  -32.5280   16.9600 C.3    74  PRO74       0.1536
     92  C         36.1850  -31.1370   17.5660 C.2    74  PRO74       0.2598
     93  O         36.7710  -30.9550   18.6190 O.2    74  PRO74      -0.2715
     94  CB        37.5280  -32.9780   16.4720 C.3    74  PRO74       0.0310
     95  CG        37.5260  -32.5220   15.0470 C.3    74  PRO74       0.0237
     96  CD        36.1560  -32.9460   14.5820 C.3    74  PRO74       0.0939
     97  N         35.5590  -30.1520   16.9190 N.am   75  LEU75      -0.1964
     98  CA        35.5650  -28.8060   17.4900 C.3    75  LEU75       0.1728
     99  C         34.4890  -28.5410   18.5330 C.2    75  LEU75       0.2616
    100  O         34.8090  -28.2250   19.6720 O.2    75  LEU75      -0.2715
    101  CB        35.4800  -27.7190   16.4190 C.3    75  LEU75       0.0311
    102  CG        35.6580  -26.3240   17.0530 C.3    75  LEU75       0.0022
    103  CD1       37.1060  -26.1480   17.5350 C.3    75  LEU75       0.0001
    104  CD2       35.2730  -25.2270   16.0790 C.3    75  LEU75       0.0001
    105  N         33.2180  -28.6330   18.1430 N.am   76  THR76      -0.1951
    106  CA        32.1350  -28.3500   19.0810 C.3    76  THR76       0.1897
    107  C         32.0400  -29.3020   20.2540 C.2    76  THR76       0.2313
    108  O         31.4380  -28.9710   21.2710 O.2    76  THR76      -0.2863
    109  CB        30.7500  -28.1970   18.4020 C.3    76  THR76       0.1794
    110  OG1       30.4150  -29.3810   17.6820 O.3    76  THR76      -0.2208
    111  CG2       30.7470  -27.0140   17.4640 C.3    76  THR76       0.0378
    112  N         21.3220  -22.4240   12.9690 N.3   116  THR116     -0.1218
    113  CA        22.4130  -21.4930   13.2250 C.3   116  THR116      0.1862
    114  C         22.6340  -20.4590   12.1270 C.2   116  THR116      0.2287
    115  O         23.4530  -19.5570   12.2920 O.2   116  THR116     -0.2866
    116  CB        23.7410  -22.2180   13.5420 C.3   116  THR116      0.1770
    117  OG1       24.1160  -23.0700   12.4500 O.3   116  THR116     -0.2211
    118  CG2       23.6040  -23.0390   14.8090 C.3   116  THR116      0.0375
    119  N         22.9150  -16.6290   12.7610 N.3   119  ALA119     -0.1245
    120  CA        24.1580  -15.9690   13.1610 C.3   119  ALA119      0.1562
    121  C         24.5670  -14.6970   12.4180 C.2   119  ALA119      0.2260
    122  O         24.6800  -13.6350   13.0320 O.2   119  ALA119     -0.2867
    123  CB        25.3050  -16.9740   13.1780 C.3   119  ALA119      0.0290
    124  N         24.2270  -18.3510    1.1770 N.3   251  GLU251     -0.1231
    125  CA        25.4390  -18.8510    1.8200 C.3   251  GLU251      0.1699
    126  C         25.0230  -20.0190    2.6910 C.2   251  GLU251      0.2592
    127  O         23.9650  -19.9960    3.3020 O.2   251  GLU251     -0.2718
    128  CB        26.1030  -17.7710    2.6950 C.3   251  GLU251      0.0402
    129  CG        27.4650  -18.1800    3.2630 C.3   251  GLU251      0.1161
    130  CD        28.1270  -17.0870    4.0860 C.2   251  GLU251      0.3649
    131  OE1       27.8220  -16.9730    5.2900 O.co2 251  GLU251     -0.2457
    132  OE2       28.9690  -16.3540    3.5340 O.co2 251  GLU251     -0.2457
    133  N         25.8500  -21.0490    2.7400 N.am  252  ARG252     -0.1966
    134  CA        25.5500  -22.2210    3.5490 C.3   252  ARG252      0.1729
    135  C         25.8920  -21.9570    5.0160 C.2   252  ARG252      0.2616
    136  O         26.9310  -21.3610    5.3180 O.2   252  ARG252     -0.2715
    137  CB        26.3590  -23.4030    3.0290 C.3   252  ARG252      0.0348
    138  CG        26.2250  -23.6040    1.5270 C.3   252  ARG252      0.0492
    139  CD        26.9140  -24.8870    1.0760 C.3   252  ARG252      0.2205
    140  NE        28.2950  -24.9310    1.5500 N.pl3 252  ARG252     -0.0865
    141  CZ        29.2370  -25.7380    1.0710 C.cat 252  ARG252      0.5346
    142  NH1       28.9580  -26.5900    0.0870 N.pl3 252  ARG252      0.1354
    143  NH2       30.4640  -25.6870    1.5600 N.pl3 252  ARG252      0.1354
    144  N         25.0080  -22.3910    5.9160 N.am  253  ALA253     -0.1963
    145  CA        25.1980  -22.2220    7.3600 C.3   253  ALA253      0.1728
    146  C         26.2010  -23.2540    7.8380 C.2   253  ALA253      0.2616
    147  O         26.8620  -23.0650    8.8560 O.2   253  ALA253     -0.2715
    148  CB        23.8870  -22.4050    8.0880 C.3   253  ALA253      0.0334
    149  N         26.2690  -24.3640    7.1090 N.am  254  PHE254     -0.1960
    150  CA        27.1890  -25.4630    7.3990 C.3   254  PHE254      0.1771
    151  C         27.2870  -26.3590    6.1690 C.2   254  PHE254      0.2619
    152  O         26.5740  -26.1550    5.1750 O.2   254  PHE254     -0.2715
    153  CB        26.7540  -26.2710    8.6420 C.3   254  PHE254      0.0574
    154  CG        25.4100  -26.9290    8.5130 C.ar  254  PHE254     -0.0200
    155  CD1       25.2960  -28.2050    7.9770 C.ar  254  PHE254     -0.0042
    156  CD2       24.2550  -26.2640    8.9080 C.ar  254  PHE254     -0.0042
    157  CE1       24.0580  -28.8080    7.8300 C.ar  254  PHE254     -0.0003
    158  CE2       23.0070  -26.8580    8.7670 C.ar  254  PHE254     -0.0003
    159  CZ        22.9090  -28.1330    8.2260 C.ar  254  PHE254     -0.0000
    160  N         28.1920  -27.3280    6.2140 N.am  255  VAL255     -0.1963
    161  CA        28.3660  -28.2120    5.0800 C.3   255  VAL255      0.1727
    162  C         28.0420  -29.6380    5.4460 C.2   255  VAL255      0.2616
    163  O         28.1170  -30.0280    6.6150 O.2   255  VAL255     -0.2715
    164  CB        29.8040  -28.1750    4.5370 C.3   255  VAL255      0.0290
    165  CG1       29.8530  -28.8330    3.1600 C.3   255  VAL255      0.0023
    166  CG2       30.3190  -26.7420    4.4740 C.3   255  VAL255      0.0023
    167  N         27.6170  -30.3920    4.4400 N.am  256  GLU256     -0.1963
    168  CA        27.3110  -31.7970    4.6120 C.3   256  GLU256      0.1733
    169  C         28.6240  -32.5600    4.3970 C.2   256  GLU256      0.2616
    170  O         29.1980  -32.5580    3.3090 O.2   256  GLU256     -0.2715
    171  CB        26.2080  -32.2370    3.6320 C.3   256  GLU256      0.0429
    172  CG        26.3510  -31.7510    2.1700 C.3   256  GLU256      0.1163
    173  CD        27.1610  -32.6820    1.2660 C.2   256  GLU256      0.3649
    174  OE1       27.2050  -33.9040    1.5280 O.co2 256  GLU256     -0.2457
    175  OE2       27.7490  -32.1830    0.2790 O.co2 256  GLU256     -0.2457
    176  N         29.1660  -33.0820    5.4870 N.am  257  LYS257     -0.1977
    177  CA        30.4090  -33.8320    5.4330 C.3   257  LYS257      0.1596
    178  C         30.0610  -35.3040    5.5060 C.2   257  LYS257      0.2287
    179  O         29.1120  -35.6400    6.2500 O.2   257  LYS257     -0.2864
    180  CB        31.3420  -33.4310    6.5830 C.3   257  LYS257      0.0298
    181  CG        31.8490  -31.9900    6.4720 C.3   257  LYS257      0.0038
    182  CD        32.6150  -31.5260    7.7110 C.3   257  LYS257      0.0206
    183  CE        32.9370  -30.0280    7.6160 C.3   257  LYS257      0.1093
    184  NZ        33.5180  -29.4550    8.8630 N.3   257  LYS257     -0.1314
@<TRIPOS>BOND
     1   142   141    1
     2   175   173   ar
     3   141   140    2
     4   141   143    1
     5   139   138    1
     6   139   140    1
     7   124   125    1
     8   173   174   ar
     9   173   172    1
    10   138   137    1
    11   125   126    1
    12   125   128    1
    13   172   171    1
    14   126   133   am
    15   126   127    2
    16   128   129    1
    17   133   134    1
    18   137   134    1
    19   165   164    1
    20   129   130    1
    21   170   169    2
    22   132   130   ar
    23   134   135    1
    24   171   168    1
    25   130   131   ar
    26     9    11   ar
    27     9     7   ar
    28    11    10   ar
    29   169   168    1
    30   169   176   am
    31   167   168    1
    32   167   162   am
    33   166   164    1
    34   164   161    1
    35   135   136    2
    36   135   144   am
    37   161   162    1
    38   161   160    1
    39   152   151    2
    40   177   176    1
    41   177   178    1
    42   177   180    1
    43   162   163    2
    44     7     6   ar
    45   178   179    2
    46    10     8   ar
    47   144   145    1
    48   151   160   am
    49   151   150    1
    50   181   180    1
    51   181   182    1
    52     6     8   ar
    53     6     5    1
    54   149   150    1
    55   149   146   am
    56   145   146    1
    57   145   148    1
    58   150   153    1
    59     1     2    1
    60   183   182    1
    61   183   184    1
    62     4     3    2
    63   157   155   ar
    64   157   159   ar
    65   146   147    2
    66   155   154   ar
    67     5     2    1
    68    27    24    1
    69   159   158   ar
    70     2     3    1
    71   154   153    1
    72   154   156   ar
    73   158   156   ar
    74    45    44    1
    75    24    23    1
    76    24    25    1
    77    23    14   am
    78    25    26    2
    79    25    28   am
    80    44    41    1
    81    28    29    1
    82    41    40    1
    83    41    42    1
    84    14    13    1
    85    14    15    2
    86    40    30   am
    87    21    20    1
    88    31    30    2
    89    30    29    1
    90    18    19    1
    91    18    17    1
    92    13    12    1
    93    13    16    1
    94    20    19    2
    95    20    22    1
    96    29    32    1
    97   114   115    2
    98   114   113    1
    99    42    43    2
   100    16    17    1
   101   121   122    2
   102   121   120    1
   103   117   116    1
   104   119   120    1
   105   112   113    1
   106   120   123    1
   107    32    33    1
   108   113   116    1
   109   116   118    1
   110    34    33   ar
   111    34    36   ar
   112    33    35   ar
   113    85    83   am
   114    96    95    1
   115    96    90    1
   116    36    38   ar
   117    35    37   ar
   118    89    88    2
   119    95    94    1
   120    83    84    2
   121    83    82    1
   122    77    75    1
   123    69    67    1
   124    38    37   ar
   125    38    39    1
   126    76    75    1
   127    90    88   am
   128    90    91    1
   129    88    87    1
   130    67    68    1
   131    67    64    1
   132   104   102    1
   133    49    48    2
   134    68    70    1
   135    53    55   ar
   136    53    51   ar
   137    75    72    1
   138    55    56   ar
   139   101   102    1
   140   101    98    1
   141    94    91    1
   142    82    79    1
   143    81    80    2
   144    97    98    1
   145    97    92   am
   146    91    92    1
   147   102   103    1
   148    50    51    1
   149    50    47    1
   150    51    52   ar
   151    80    79    1
   152    80    86   am
   153    63    64    1
   154    63    59   am
   155    87    86    1
   156    48    47    1
   157    48    57   am
   158    64    65    1
   159    56    54   ar
   160   111   109    1
   161    98    99    1
   162    92    93    2
   163    46    47    1
   164    72    71    1
   165    72    73    1
   166    79    78    1
   167   110   109    1
   168    58    59    1
   169    58    57    1
   170    58    61    1
   171    59    60    2
   172   105    99   am
   173   105   106    1
   174    62    61    1
   175    65    66    2
   176    52    54   ar
   177   109   106    1
   178    73    74    2
   179    99   100    2
   180   106   107    1
   181   107   108    2
