@<TRIPOS>MOLECULE
tmp/1a8rL00.pdb
 77 72 0 0 0
SMALL
GASTEIGER

@<TRIPOS>ATOM
      1  N        223.8120   89.7670   50.5900 N.3    85  LYS85      -0.1245
      2  CA       222.8690   89.1300   51.5120 C.3    85  LYS85       0.1561
      3  C        223.7670   88.3430   52.4340 C.2    85  LYS85       0.2260
      4  O        224.4410   87.4270   51.9880 O.2    85  LYS85      -0.2867
      5  CB       221.9090   88.1770   50.7690 C.3    85  LYS85       0.0271
      6  CG       221.0010   88.8800   49.7710 C.3    85  LYS85       0.0035
      7  CD       220.0540   87.9040   49.0970 C.3    85  LYS85       0.0206
      8  CE       219.1530   88.6100   48.0980 C.3    85  LYS85       0.1093
      9  NZ       218.2220   87.6610   47.4300 N.3    85  LYS85      -0.1314
     10  N        224.6730   85.7100   55.4380 N.3    87  THR87      -0.1218
     11  CA       224.0980   84.5530   56.1160 C.3    87  THR87       0.1862
     12  C        225.2060   84.0930   57.0410 C.2    87  THR87       0.2287
     13  O        226.3920   84.1780   56.6860 O.2    87  THR87      -0.2866
     14  CB       223.6600   83.3820   55.1890 C.3    87  THR87       0.1770
     15  OG1      224.7980   82.6360   54.7370 O.3    87  THR87      -0.2211
     16  CG2      222.8850   83.9180   54.0070 C.3    87  THR87       0.0375
     17  N        225.8150   81.1360   60.5430 N.3    89  ILE89      -0.1245
     18  CA       225.2870   79.9550   61.1850 C.3    89  ILE89       0.1561
     19  C        225.9090   79.9630   62.5640 C.2    89  ILE89       0.2260
     20  O        226.9740   80.5430   62.7780 O.2    89  ILE89      -0.2867
     21  CB       225.6360   78.6380   60.4870 C.3    89  ILE89       0.0252
     22  CG1      227.1430   78.4980   60.3250 C.3    89  ILE89       0.0019
     23  CG2      224.8800   78.5400   59.1790 C.3    89  ILE89       0.0019
     24  CD1      227.5590   77.1320   59.8620 C.3    89  ILE89       0.0001
     25  N        229.5220   81.7610   62.4840 N.3   131  VAL131     -0.1231
     26  CA       230.4230   81.4450   61.3900 C.3   131  VAL131      0.1692
     27  C        229.6940   82.0950   60.1990 C.2   131  VAL131      0.2592
     28  O        228.4880   81.9190   60.0430 O.2   131  VAL131     -0.2718
     29  CB       230.5510   79.8900   61.2400 C.3   131  VAL131      0.0266
     30  CG1      231.2360   79.5060   59.9650 C.3   131  VAL131      0.0020
     31  CG2      231.3520   79.3370   62.3750 C.3   131  VAL131      0.0020
     32  N        230.4000   82.8820   59.3980 N.am  132  ILE132     -0.1966
     33  CA       229.7850   83.5430   58.2420 C.3   132  ILE132      0.1727
     34  C        229.9260   82.6380   57.0250 C.2   132  ILE132      0.2617
     35  O        230.8260   81.7730   56.9850 O.2   132  ILE132     -0.2715
     36  CB       230.4290   84.9480   57.9780 C.3   132  ILE132      0.0290
     37  CG1      229.6620   85.7120   56.8900 C.3   132  ILE132      0.0022
     38  CG2      231.8890   84.7830   57.5810 C.3   132  ILE132      0.0023
     39  CD1      230.1670   87.1680   56.6220 C.3   132  ILE132      0.0001
     40  N        229.0040   82.7840   56.0730 N.am  133  GLY133     -0.1940
     41  CA       229.0530   81.9890   54.8630 C.3   133  GLY133      0.2014
     42  C        230.3000   82.4080   54.1200 C.2   133  GLY133      0.2639
     43  O        230.4940   83.5860   53.8620 O.2   133  GLY133     -0.2714
     44  N        231.1500   81.4620   53.7690 N.am  134  LEU134     -0.1963
     45  CA       232.3870   81.7820   53.0650 C.3   134  LEU134      0.1728
     46  C        232.2730   82.7650   51.9080 C.2   134  LEU134      0.2617
     47  O        233.0000   83.7570   51.8800 O.2   134  LEU134     -0.2715
     48  CB       233.0630   80.4980   52.5890 C.3   134  LEU134      0.0311
     49  CG       233.5660   79.6040   53.7250 C.3   134  LEU134      0.0022
     50  CD1      234.1150   78.2990   53.1770 C.3   134  LEU134      0.0001
     51  CD2      234.6260   80.3620   54.5220 C.3   134  LEU134      0.0001
     52  N        231.3470   82.5380   50.9770 N.am  135  SER135     -0.1936
     53  CA       231.2010   83.4390   49.8330 C.3   135  SER135      0.2055
     54  C        230.9150   84.8710   50.2250 C.2   135  SER135      0.2642
     55  O        231.2380   85.7910   49.4790 O.2   135  SER135     -0.2714
     56  CB       230.0860   82.9620   48.9210 C.3   135  SER135      0.2130
     57  OG       228.8330   83.0700   49.5740 O.3   135  SER135     -0.2179
     58  N        230.3520   85.0600   51.4140 N.am  136  LYS136     -0.1977
     59  CA       229.9950   86.3930   51.9030 C.3   136  LYS136      0.1596
     60  C        231.2190   87.2890   52.1190 C.2   136  LYS136      0.2287
     61  O        231.1500   88.5170   51.9410 O.2   136  LYS136     -0.2864
     62  CB       229.1590   86.2780   53.1910 C.3   136  LYS136      0.0298
     63  CG       227.9630   85.2990   53.1150 C.3   136  LYS136      0.0038
     64  CD       227.0490   85.6160   51.9540 C.3   136  LYS136      0.0206
     65  CE       225.9180   84.6030   51.8380 C.3   136  LYS136      0.1093
     66  NZ       225.0490   84.9580   50.6760 N.3   136  LYS136     -0.1314
     67  N        232.1140   88.4490   48.6510 N.3   139  ARG139     -0.1245
     68  CA       231.1300   89.4690   48.2390 C.3   139  ARG139      0.1563
     69  C        231.3480   90.8080   48.9590 C.2   139  ARG139      0.2260
     70  O        231.2170   91.8850   48.3580 O.2   139  ARG139     -0.2867
     71  CB       229.6880   88.9500   48.4470 C.3   139  ARG139      0.0307
     72  CG       229.4020   87.6290   47.7230 C.3   139  ARG139      0.0489
     73  CD       227.9330   87.2440   47.6570 C.3   139  ARG139      0.2205
     74  NE       227.4630   87.4220   46.2850 N.pl3 139  ARG139     -0.0865
     75  CZ       227.0280   86.4340   45.5110 C.cat 139  ARG139      0.5346
     76  NH1      226.9970   85.2030   45.9780 N.pl3 139  ARG139      0.1354
     77  NH2      226.6610   86.6680   44.2530 N.pl3 139  ARG139      0.1354
@<TRIPOS>BOND
     1    77    75    1
     2    75    76    1
     3    75    74    2
     4    74    73    1
     5     9     8    1
     6    73    72    1
     7    72    71    1
     8     8     7    1
     9    68    71    1
    10    68    67    1
    11    68    69    1
    12    70    69    2
    13    56    57    1
    14    56    53    1
    15     7     6    1
    16    55    54    2
    17     6     5    1
    18    53    54    1
    19    53    52    1
    20    54    58   am
    21     1     2    1
    22    66    65    1
    23     5     2    1
    24    52    46   am
    25    58    59    1
    26     2     3    1
    27    65    64    1
    28    47    46    2
    29    59    60    1
    30    59    62    1
    31    46    45    1
    32    61    60    2
    33    64    63    1
    34     4     3    2
    35    48    45    1
    36    48    49    1
    37    45    44    1
    38    63    62    1
    39    50    49    1
    40    49    51    1
    41    44    42   am
    42    43    42    2
    43    16    14    1
    44    42    41    1
    45    15    14    1
    46    41    40    1
    47    14    11    1
    48    10    11    1
    49    40    34   am
    50    11    12    1
    51    39    37    1
    52    13    12    2
    53    37    36    1
    54    35    34    2
    55    34    33    1
    56    38    36    1
    57    36    33    1
    58    33    32    1
    59    23    21    1
    60    32    27   am
    61    24    22    1
    62    30    29    1
    63    28    27    2
    64    27    26    1
    65    22    21    1
    66    21    18    1
    67    17    18    1
    68    18    19    1
    69    29    26    1
    70    29    31    1
    71    26    25    1
    72    19    20    2
