@<TRIPOS>MOLECULE
tmp/1a8rL01.pdb
 102 98 0 0 0
SMALL
GASTEIGER

@<TRIPOS>ATOM
      1  N        241.0320  103.1800   40.9910 N.3   110  CYS110     -0.1235
      2  CA       241.6920  104.1840   41.8460 C.3   110  CYS110      0.1677
      3  C        240.9340  105.4940   41.6550 C.2   110  CYS110      0.2270
      4  O        240.6420  105.8720   40.5110 O.2   110  CYS110     -0.2867
      5  CB       243.1740  104.3720   41.4570 C.3   110  CYS110      0.0956
      6  SG       243.5160  105.1080   39.8050 S.3   110  CYS110     -0.0801
      7  N        242.0010  108.5070   41.9960 N.3   112  SER112     -0.1202
      8  CA       242.8570  109.5920   41.5130 C.3   112  SER112      0.2020
      9  C        242.8230  109.7240   40.0010 C.2   112  SER112      0.2618
     10  O        242.9550  110.8210   39.4610 O.2   112  SER112     -0.2717
     11  CB       244.3090  109.3660   41.9470 C.3   112  SER112      0.2103
     12  OG       244.8490  108.2150   41.3060 O.3   112  SER112     -0.2182
     13  N        242.6820  108.6030   39.2990 N.am  113  HIS113     -0.1975
     14  CA       242.6630  108.6520   37.8360 C.3   113  HIS113      0.1656
     15  C        241.5140  107.8530   37.2200 C.2   113  HIS113      0.2291
     16  O        241.3520  107.8540   36.0000 O.2   113  HIS113     -0.2864
     17  CB       243.9900  108.0980   37.2750 C.3   113  HIS113      0.0771
     18  CG       245.2070  108.9130   37.6220 C.ar  113  HIS113      0.0820
     19  ND1      245.8690  108.8130   38.8340 N.ar  113  HIS113     -0.2267
     20  CD2      245.8790  109.8490   36.9080 C.ar  113  HIS113      0.1154
     21  CE1      246.8910  109.6510   38.8490 C.ar  113  HIS113      0.1986
     22  NE2      246.9190  110.2910   37.6920 N.ar  113  HIS113     -0.2212
     23  N        238.3680  103.9590   44.6480 N.3   149  GLN149     -0.1231
     24  CA       239.1090  103.7250   45.8810 C.3   149  GLN149      0.1698
     25  C        240.5290  104.2340   46.1120 C.2   149  GLN149      0.2592
     26  O        241.1960  104.7860   45.2270 O.2   149  GLN149     -0.2718
     27  CB       239.0950  102.2190   46.1630 C.3   149  GLN149      0.0381
     28  CG       237.7590  101.6670   46.6670 C.3   149  GLN149      0.0905
     29  CD       237.4350  102.1170   48.0820 C.2   149  GLN149      0.2608
     30  OE1      238.0070  103.0790   48.5860 O.2   149  GLN149     -0.2717
     31  NE2      236.5360  101.4080   48.7370 N.am  149  GLN149     -0.0878
     32  N        240.9270  104.0490   47.3650 N.am  150  VAL150     -0.1966
     33  CA       242.2250  104.3780   47.9330 C.3   150  VAL150      0.1727
     34  C        242.3970  103.0840   48.7030 C.2   150  VAL150      0.2616
     35  O        241.6810  102.8460   49.6700 O.2   150  VAL150     -0.2715
     36  CB       242.1570  105.5790   48.9060 C.3   150  VAL150      0.0290
     37  CG1      243.4540  105.7120   49.6840 C.3   150  VAL150      0.0023
     38  CG2      241.9180  106.8580   48.1150 C.3   150  VAL150      0.0023
     39  N        243.3170  102.2390   48.2440 N.am  151  GLN151     -0.1963
     40  CA       243.5760  100.9360   48.8550 C.3   151  GLN151      0.1733
     41  C        243.5940  100.9380   50.3820 C.2   151  GLN151      0.2616
     42  O        243.0010  100.0570   51.0280 O.2   151  GLN151     -0.2715
     43  CB       244.8830  100.3580   48.3060 C.3   151  GLN151      0.0408
     44  CG       245.1160   98.9070   48.7280 C.3   151  GLN151      0.0908
     45  CD       246.3230   98.2720   48.0780 C.2   151  GLN151      0.2608
     46  OE1      246.7560   98.6790   46.9910 O.2   151  GLN151     -0.2717
     47  NE2      246.8750   97.2730   48.7390 N.am  151  GLN151     -0.0878
     48  N        244.2440  101.9550   50.9420 N.am  152  GLU152     -0.1977
     49  CA       244.3650  102.1230   52.3880 C.3   152  GLU152      0.1602
     50  C        242.9800  102.2090   53.0420 C.2   152  GLU152      0.2287
     51  O        242.7360  101.6080   54.0920 O.2   152  GLU152     -0.2864
     52  CB       245.1850  103.3860   52.7070 C.3   152  GLU152      0.0415
     53  CG       246.6900  103.3060   52.3470 C.3   152  GLU152      0.1163
     54  CD       247.0470  103.6960   50.9010 C.2   152  GLU152      0.3649
     55  OE1      246.1830  103.6940   50.0090 O.co2 152  GLU152     -0.2457
     56  OE2      248.2280  104.0170   50.6520 O.co2 152  GLU152     -0.2457
     57  N        248.2420   98.8990   40.6630 N.3   179  HIS179     -0.1241
     58  CA       247.4740  100.0580   40.2820 C.3   179  HIS179      0.1621
     59  C        247.9440  100.4240   38.8930 C.2   179  HIS179      0.2264
     60  O        249.1090  100.7740   38.7020 O.2   179  HIS179     -0.2867
     61  CB       247.7270  101.2280   41.2300 C.3   179  HIS179      0.0745
     62  CG       247.1900  101.0260   42.6120 C.ar  179  HIS179      0.0817
     63  ND1      246.3680  101.9440   43.2340 N.ar  179  HIS179     -0.2268
     64  CD2      247.3620  100.0170   43.4960 C.ar  179  HIS179      0.1154
     65  CE1      246.0570  101.5030   44.4420 C.ar  179  HIS179      0.1986
     66  NE2      246.6500  100.3350   44.6250 N.ar  179  HIS179     -0.2212
     67  N        247.4780  103.0210   37.2940 N.3   181  CYS181     -0.1221
     68  CA       247.8590  104.4440   37.1260 C.3   181  CYS181      0.1808
     69  C        249.3690  104.6130   37.4050 C.2   181  CYS181      0.2601
     70  O        249.9730  105.6260   37.0610 O.2   181  CYS181     -0.2717
     71  CB       247.0390  105.3770   38.0400 C.3   181  CYS181      0.0970
     72  SG       247.0570  105.0070   39.7970 S.3   181  CYS181     -0.0800
     73  N        249.9390  103.5940   38.0420 N.am  182  VAL182     -0.1979
     74  CA       251.3400  103.5220   38.3930 C.3   182  VAL182      0.1595
     75  C        252.0460  102.6510   37.3450 C.2   182  VAL182      0.2287
     76  O        253.1610  102.9670   36.9090 O.2   182  VAL182     -0.2864
     77  CB       251.5230  102.8450   39.7660 C.3   182  VAL182      0.0276
     78  CG1      252.9740  102.5570   40.0180 C.3   182  VAL182      0.0022
     79  CG2      250.9760  103.7230   40.8520 C.3   182  VAL182      0.0022
     80  N        251.1720  103.9880   33.2930 N.3   185  ARG185     -0.1231
     81  CA       251.1580  105.4240   33.1410 C.3   185  ARG185      0.1694
     82  C        252.0960  106.0760   34.1830 C.2   185  ARG185      0.2593
     83  O        252.5730  105.4020   35.1020 O.2   185  ARG185     -0.2718
     84  CB       249.6960  105.8210   33.3610 C.3   185  ARG185      0.0321
     85  CG       249.3870  107.2390   33.3230 C.3   185  ARG185      0.0489
     86  CD       248.4420  107.5420   34.4310 C.3   185  ARG185      0.2205
     87  NE       248.6750  108.9260   34.7600 N.pl3 185  ARG185     -0.0865
     88  CZ       249.5240  109.3190   35.6910 C.cat 185  ARG185      0.5346
     89  NH1      250.1900  108.4170   36.3950 N.pl3 185  ARG185      0.1354
     90  NH2      249.7580  110.6130   35.8570 N.pl3 185  ARG185      0.1354
     91  N        252.3790  107.3680   34.0090 N.am  186  GLY186     -0.1942
     92  CA       253.2400  108.0920   34.9320 C.3   186  GLY186      0.2014
     93  C        254.6020  107.4570   35.0880 C.2   186  GLY186      0.2638
     94  O        255.3690  107.3890   34.1300 O.2   186  GLY186     -0.2714
     95  N        254.8960  106.9690   36.2820 N.am  187  ILE187     -0.1977
     96  CA       256.1790  106.3400   36.5290 C.3   187  ILE187      0.1596
     97  C        256.3030  105.0470   35.7180 C.2   187  ILE187      0.2287
     98  O        257.4220  104.6050   35.4270 O.2   187  ILE187     -0.2864
     99  CB       256.4070  106.1140   38.0790 C.3   187  ILE187      0.0276
    100  CG1      257.8550  105.6740   38.3610 C.3   187  ILE187      0.0022
    101  CG2      255.4470  105.1020   38.6290 C.3   187  ILE187      0.0022
    102  CD1      258.9120  106.6910   37.9350 C.3   187  ILE187      0.0001
@<TRIPOS>BOND
     1    81    80    1
     2    81    84    1
     3    81    82    1
     4    85    84    1
     5    85    86    1
     6    91    82   am
     7    91    92    1
     8    94    93    2
     9    82    83    2
    10    86    87    1
    11    87    88    2
    12    92    93    1
    13    93    95   am
    14    98    97    2
    15    88    90    1
    16    88    89    1
    17    97    96    1
    18    16    15    2
    19    95    96    1
    20    96    99    1
    21    20    18   ar
    22    20    22   ar
    23    76    75    2
    24    70    69    2
    25    68    67    1
    26    68    69    1
    27    68    71    1
    28    15    14    1
    29    17    18    1
    30    17    14    1
    31    75    74    1
    32    69    73   am
    33    18    19   ar
    34    22    21   ar
    35    14    13    1
    36   102   100    1
    37    71    72    1
    38    73    74    1
    39    99   100    1
    40    99   101    1
    41    74    77    1
    42    60    59    2
    43    19    21   ar
    44    59    58    1
    45    13     9   am
    46    10     9    2
    47    77    78    1
    48    77    79    1
    49     6     5    1
    50     9     8    1
    51    58    57    1
    52    58    61    1
    53     4     3    2
    54     1     2    1
    55    61    62    1
    56    12    11    1
    57     5     2    1
    58     8    11    1
    59     8     7    1
    60     3     2    1
    61    62    63   ar
    62    62    64   ar
    63    63    65   ar
    64    64    66   ar
    65    65    66   ar
    66    23    24    1
    67    26    25    2
    68    24    25    1
    69    24    27    1
    70    25    32   am
    71    27    28    1
    72    28    29    1
    73    46    45    2
    74    32    33    1
    75    33    34    1
    76    33    36    1
    77    45    44    1
    78    45    47   am
    79    29    30    2
    80    29    31   am
    81    38    36    1
    82    39    34   am
    83    39    40    1
    84    43    44    1
    85    43    40    1
    86    34    35    2
    87    40    41    1
    88    36    37    1
    89    55    54   ar
    90    41    48   am
    91    41    42    2
    92    56    54   ar
    93    54    53    1
    94    48    49    1
    95    53    52    1
    96    49    52    1
    97    49    50    1
    98    50    51    2
