@<TRIPOS>MOLECULE
tmp/1a8tA00.pdb
 155 150 0 0 0
SMALL
GASTEIGER

@<TRIPOS>ATOM
      1  N         12.9730   42.0350   -8.3760 N.3    29  ILE29      -0.1245
      2  CA        12.9900   40.6170   -8.8020 C.3    29  ILE29       0.1561
      3  C         11.8650   40.5420   -9.8640 C.2    29  ILE29       0.2260
      4  O         10.6850   40.7220   -9.5190 O.2    29  ILE29      -0.2867
      5  CB        12.6070   39.6380   -7.6960 C.3    29  ILE29       0.0252
      6  CG1       13.7500   39.4100   -6.7160 C.3    29  ILE29       0.0019
      7  CG2       12.1930   38.3100   -8.3350 C.3    29  ILE29       0.0019
      8  CD1       13.3860   38.6060   -5.4990 C.3    29  ILE29       0.0001
      9  N          7.3250   40.5390   -9.9920 N.3    32  TRP32      -0.1241
     10  CA         6.6690   40.9620   -8.7870 C.3    32  TRP32       0.1605
     11  C          6.8590   42.4010   -8.3490 C.2    32  TRP32       0.2264
     12  O          6.2800   42.7960   -7.3230 O.2    32  TRP32      -0.2867
     13  CB         7.3240   40.1390   -7.5960 C.3    32  TRP32       0.0550
     14  CG         7.2220   38.6660   -7.8580 C.ar   32  TRP32       0.0003
     15  CD1        8.0970   37.9020   -8.5800 C.ar   32  TRP32       0.0946
     16  CD2        6.1580   37.8060   -7.4550 C.ar   32  TRP32       0.0152
     17  NE1        7.6580   36.6080   -8.6400 N.ar   32  TRP32      -0.2442
     18  CE2        6.4540   36.5260   -7.9720 C.ar   32  TRP32       0.0810
     19  CE3        5.0030   37.9700   -6.7040 C.ar   32  TRP32       0.0012
     20  CZ2        5.6260   35.4180   -7.7550 C.ar   32  TRP32       0.0191
     21  CZ3        4.1800   36.8700   -6.4720 C.ar   32  TRP32       0.0001
     22  CH2        4.4910   35.6090   -6.9870 C.ar   32  TRP32       0.0015
     23  N          8.9620   45.5250   -6.5560 N.3    34  MET34      -0.1230
     24  CA         9.9490   45.6510   -5.5360 C.3    34  MET34       0.1702
     25  C          9.8290   44.8760   -4.2410 C.2    34  MET34       0.2592
     26  O          9.0580   45.1520   -3.3540 O.2    34  MET34      -0.2718
     27  CB        10.2820   47.1090   -5.1470 C.3    34  MET34       0.0401
     28  CG        11.7830   47.2490   -5.5900 C.3    34  MET34       0.0596
     29  SD        12.1830   48.9730   -5.8160 S.3    34  MET34      -0.1393
     30  CE        12.3770   49.5080   -4.0870 C.3    34  MET34       0.0692
     31  N         10.7230   43.8960   -4.1830 N.am   35  VAL35      -0.1966
     32  CA        10.8420   42.9800   -3.1020 C.3    35  VAL35       0.1712
     33  C         12.0480   43.2110   -2.1940 C.2    35  VAL35       0.2458
     34  O         13.1500   43.4120   -2.6920 O.2    35  VAL35      -0.2730
     35  CB        11.1720   41.5770   -3.7050 C.3    35  VAL35       0.0289
     36  CG1       11.4030   40.6300   -2.5590 C.3    35  VAL35       0.0023
     37  CG2       10.1460   41.1280   -4.6840 C.3    35  VAL35       0.0023
     38  N         11.8440   43.1400   -0.9120 N.am   36  PRO36      -0.2727
     39  CA        12.8620   43.2490    0.0950 C.3    36  PRO36       0.1402
     40  C         13.3410   41.8240    0.4850 C.2    36  PRO36       0.2269
     41  O         12.6630   40.8650    0.8860 O.2    36  PRO36      -0.2865
     42  CB        12.1130   43.9700    1.2090 C.3    36  PRO36       0.0296
     43  CG        10.6960   43.5300    1.0840 C.3    36  PRO36       0.0237
     44  CD        10.5260   42.8950   -0.2610 C.3    36  PRO36       0.0939
     45  N         17.4300   30.6670   -5.7190 N.3    84  HIS84      -0.1226
     46  CA        16.6990   31.8090   -6.2840 C.3    84  HIS84       0.1752
     47  C         17.4430   33.1270   -6.3880 C.2    84  HIS84       0.2597
     48  O         18.2700   33.4660   -5.5240 O.2    84  HIS84      -0.2718
     49  CB        15.3630   32.0530   -5.5870 C.3    84  HIS84       0.0759
     50  CG        14.2620   31.0930   -5.8730 C.ar   84  HIS84       0.0818
     51  ND1       13.2170   30.8870   -4.9770 N.ar   84  HIS84      -0.2268
     52  CD2       14.0070   30.2820   -6.9270 C.ar   84  HIS84       0.1154
     53  CE1       12.3870   29.9690   -5.4850 C.ar   84  HIS84       0.1986
     54  NE2       12.8350   29.6000   -6.6750 N.ar   84  HIS84      -0.2212
     55  N         17.1970   33.9060   -7.4300 N.am   85  GLY85      -0.1942
     56  CA        17.8690   35.1780   -7.5460 C.3    85  GLY85       0.2014
     57  C         18.1700   35.8110   -6.2060 C.2    85  GLY85       0.2638
     58  O         19.1550   36.4910   -5.9660 O.2    85  GLY85      -0.2714
     59  N         17.2920   35.6050   -5.2330 N.am   86  ASP86      -0.1971
     60  CA        17.4150   36.1520   -3.8970 C.3    86  ASP86       0.1709
     61  C         18.4450   35.4520   -3.0230 C.2    86  ASP86       0.2293
     62  O         18.8200   35.9440   -1.9540 O.2    86  ASP86      -0.2864
     63  CB        16.0820   36.3880   -3.2660 C.3    86  ASP86       0.1436
     64  CG        14.9580   35.4450   -3.3260 C.2    86  ASP86       0.3671
     65  OD1       14.6690   34.7800   -4.3080 O.co2  86  ASP86      -0.2456
     66  OD2       14.2370   35.3400   -2.3050 O.co2  86  ASP86      -0.2456
     67  N          9.4820   26.1120    0.7670 N.3   145  HIS145     -0.1241
     68  CA         9.2650   27.2320   -0.1830 C.3   145  HIS145      0.1621
     69  C          9.7960   26.8350   -1.5390 C.2   145  HIS145      0.2264
     70  O          9.4160   27.2270   -2.6490 O.2   145  HIS145     -0.2867
     71  CB         9.9680   28.4510    0.3830 C.3   145  HIS145      0.0745
     72  CG        10.3560   29.5110   -0.5660 C.ar  145  HIS145      0.0817
     73  ND1        9.4800   30.4200   -1.1140 N.ar  145  HIS145     -0.2268
     74  CD2       11.5450   29.8400   -1.1060 C.ar  145  HIS145      0.1154
     75  CE1       10.1020   31.2220   -1.9340 C.ar  145  HIS145      0.1986
     76  NE2       11.3740   30.8970   -1.9630 N.ar  145  HIS145     -0.2212
     77  N         13.8130   31.2580    3.3520 N.3   164  CYS164     -0.1292
     78  CA        12.5270   31.4330    2.7100 C.3   164  CYS164      0.1363
     79  C         11.5380   30.3380    3.0850 C.3   164  CYS164      0.2019
     80  O         10.4450   30.4390    2.5310 O.3   164  CYS164     -0.2188
     81  CB        12.5650   31.5130    1.1990 C.3   164  CYS164      0.0903
     82  SG        13.1920   33.0930    0.6100 S.3   164  CYS164     -0.0805
     83  N          8.4300   32.8270    7.1350 N.3   167  LYS167     -0.1231
     84  CA         7.8200   34.1040    6.8370 C.3   167  LYS167      0.1693
     85  C          7.8380   34.9310    8.1150 C.2   167  LYS167      0.2592
     86  O          8.0050   34.3290    9.1660 O.2   167  LYS167     -0.2718
     87  CB         6.3700   33.9630    6.4090 C.3   167  LYS167      0.0285
     88  CG         6.0380   32.9460    5.3530 C.3   167  LYS167      0.0035
     89  CD         6.6220   33.3890    3.9680 C.3   167  LYS167      0.0206
     90  CE         5.7890   32.7100    2.8960 C.3   167  LYS167      0.1093
     91  NZ         5.7590   33.3990    1.6150 N.3   167  LYS167     -0.1314
     92  N          7.6330   36.2420    8.0490 N.am  168  ASP168     -0.1974
     93  CA         7.6460   37.0620    9.2570 C.3   168  ASP168      0.1709
     94  C          6.3020   36.7800   10.0100 C.2   168  ASP168      0.2293
     95  O          5.4270   36.2640    9.3470 O.2   168  ASP168     -0.2864
     96  CB         7.2670   38.5200    9.0710 C.3   168  ASP168      0.1436
     97  CG         7.7750   39.4880    8.1560 C.2   168  ASP168      0.3671
     98  OD1        8.7290   39.1650    7.4320 O.co2 168  ASP168     -0.2456
     99  OD2        7.3070   40.6320    8.0470 O.co2 168  ASP168     -0.2456
    100  N          4.5480   39.2670   10.4370 N.3   170  GLN170     -0.1231
    101  CA         3.7590   40.3070    9.8340 C.3   170  GLN170      0.1698
    102  C          2.9360   39.9600    8.6110 C.2   170  GLN170      0.2592
    103  O          1.9600   40.6250    8.2760 O.2   170  GLN170     -0.2718
    104  CB         4.7480   41.4170    9.3030 C.3   170  GLN170      0.0381
    105  CG         4.1800   42.8040    9.4560 C.3   170  GLN170      0.0905
    106  CD         4.8930   43.9720    8.8310 C.2   170  GLN170      0.2608
    107  OE1        6.1330   44.1410    8.8450 O.2   170  GLN170     -0.2717
    108  NE2        4.0730   44.8950    8.2320 N.am  170  GLN170     -0.0878
    109  N          3.3800   38.9550    7.8950 N.am  171  THR171     -0.1953
    110  CA         2.7920   38.5200    6.6300 C.3   171  THR171      0.1897
    111  C          1.9420   37.2920    6.8110 C.2   171  THR171      0.2313
    112  O          2.2000   36.4770    7.6860 O.2   171  THR171     -0.2863
    113  CB         4.0540   38.1320    5.8000 C.3   171  THR171      0.1794
    114  OG1        5.1170   38.9620    6.3120 O.3   171  THR171     -0.2208
    115  CG2        3.9500   38.2490    4.3340 C.3   171  THR171      0.0378
    116  N          0.9210   35.5340    3.8870 N.3   173  SER173     -0.1217
    117  CA         1.1200   35.1800    2.4990 C.3   173  SER173      0.1889
    118  C          2.0840   34.0310    2.2140 C.2   173  SER173      0.2288
    119  O          3.2130   33.8910    2.7590 O.2   173  SER173     -0.2866
    120  CB         1.7480   36.4790    1.8750 C.3   173  SER173      0.2089
    121  OG         1.8870   36.4650    0.4900 O.3   173  SER173     -0.2183
    122  N          3.5090   33.7120   -0.4590 N.3   175  GLY175     -0.1210
    123  CA         4.3720   34.3170   -1.4640 C.3   175  GLY175      0.1956
    124  C          4.4050   33.5610   -2.8010 C.2   175  GLY175      0.2611
    125  O          3.3260   33.3120   -3.3170 O.2   175  GLY175     -0.2717
    126  N          5.5570   33.2250   -3.3170 N.am  176  ASN176     -0.1974
    127  CA         5.8990   32.5600   -4.5150 C.3   176  ASN176      0.1688
    128  C          6.2200   31.0840   -4.3150 C.2   176  ASN176      0.2292
    129  O          7.2680   30.6870   -3.7760 O.2   176  ASN176     -0.2864
    130  CB         7.2330   33.1100   -5.0890 C.3   176  ASN176      0.1181
    131  CG         7.7200   32.2720   -6.2530 C.2   176  ASN176      0.2629
    132  OD1        7.0210   31.3560   -6.7030 O.2   176  ASN176     -0.2716
    133  ND2        8.9140   32.6020   -6.7300 N.am  176  ASN176     -0.0877
    134  N         12.7790   36.9650    3.6940 N.3   206  HIS206     -0.1226
    135  CA        12.0880   38.1760    3.3640 C.3   206  HIS206      0.1752
    136  C         11.2140   38.5080    4.5850 C.2   206  HIS206      0.2597
    137  O         10.7870   37.6330    5.3360 O.2   206  HIS206     -0.2718
    138  CB        11.1680   38.0890    2.1670 C.3   206  HIS206      0.0759
    139  CG        11.5810   37.2550    1.0110 C.ar  206  HIS206      0.0818
    140  ND1       11.8840   37.7810   -0.2200 N.ar  206  HIS206     -0.2268
    141  CD2       11.7870   35.9240    0.8600 C.ar  206  HIS206      0.1154
    142  CE1       12.2650   36.8390   -1.0890 C.ar  206  HIS206      0.1986
    143  NE2       12.2180   35.6970   -0.4410 N.ar  206  HIS206     -0.2212
    144  N         10.9300   39.7810    4.7860 N.am  207  GLY207     -0.1942
    145  CA        10.1150   40.1620    5.9540 C.3   207  GLY207      0.2014
    146  C         11.1510   40.4500    7.0600 C.2   207  GLY207      0.2638
    147  O         12.3480   40.1730    6.9190 O.2   207  GLY207     -0.2714
    148  N         10.6410   41.0190    8.1440 N.am  208  ASN208     -0.1972
    149  CA        11.5290   41.3470    9.2650 C.3   208  ASN208      0.1688
    150  C         11.7570   40.1010   10.1020 C.2   208  ASN208      0.2292
    151  O         10.9450   39.1700   10.1320 O.2   208  ASN208     -0.2864
    152  CB        10.9130   42.5710    9.9310 C.3   208  ASN208      0.1181
    153  CG         9.3890   42.4980    9.8190 C.2   208  ASN208      0.2629
    154  OD1        8.8380   41.7270   10.6590 O.2   208  ASN208     -0.2716
    155  ND2        8.6830   43.1240    9.0120 N.am  208  ASN208     -0.0877
@<TRIPOS>BOND
     1     9    10    1
     2     3     4    2
     3     3     2    1
     4     2     1    1
     5     2     5    1
     6    10    11    1
     7    10    13    1
     8    17    15   ar
     9    17    18   ar
    10    15    14   ar
    11    11    12    2
    12     7     5    1
    13    18    20   ar
    14    18    16   ar
    15    14    13    1
    16    14    16   ar
    17    20    22   ar
    18     5     6    1
    19    56    55    1
    20    56    57    1
    21    16    19   ar
    22    55    47   am
    23    22    21   ar
    24    52    54   ar
    25    52    50   ar
    26   133   131   am
    27     6     8    1
    28    19    21   ar
    29   132   131    2
    30    54    53   ar
    31    23    24    1
    32    47    46    1
    33    47    48    2
    34    46    45    1
    35    46    49    1
    36   131   130    1
    37    57    58    2
    38    57    59   am
    39    50    49    1
    40    50    51   ar
    41    29    28    1
    42    29    30    1
    43    28    27    1
    44    24    27    1
    45    24    25    1
    46    53    51   ar
    47    59    60    1
    48   130   127    1
    49    37    35    1
    50   127   128    1
    51   127   126    1
    52   128   129    2
    53    65    64   ar
    54    25    31   am
    55    25    26    2
    56    31    32    1
    57    60    63    1
    58    60    61    1
    59    35    32    1
    60    35    36    1
    61    64    63    1
    62    64    66   ar
    63   126   124   am
    64   125   124    2
    65    32    33    1
    66    61    62    2
    67   124   123    1
    68    34    33    2
    69    70    69    2
    70    33    38   am
    71    76    75   ar
    72    76    74   ar
    73    75    73   ar
    74    69    68    1
    75   123   122    1
    76    73    72   ar
    77    74    72   ar
    78   142   143   ar
    79   142   140   ar
    80    38    44    1
    81    38    39    1
    82    72    71    1
    83   143   141   ar
    84    44    43    1
    85   140   139   ar
    86    68    71    1
    87    68    67    1
    88    39    40    1
    89    39    42    1
    90    40    41    2
    91   121   120    1
    92    82    81    1
    93   141   139   ar
    94   139   138    1
    95    43    42    1
    96    81    78    1
    97    91    90    1
    98   120   117    1
    99   138   135    1
   100   118   117    1
   101   118   119    2
   102   117   116    1
   103    80    79    1
   104    78    79    1
   105    78    77    1
   106    90    89    1
   107   135   134    1
   108   135   136    1
   109    89    88    1
   110   115   113    1
   111   136   144   am
   112   136   137    2
   113   144   145    1
   114    88    87    1
   115   113   114    1
   116   113   110    1
   117   145   146    1
   118    87    84    1
   119   110   111    1
   120   110   109    1
   121   111   112    2
   122    84    83    1
   123    84    85    1
   124   147   146    2
   125   146   148   am
   126    98    97   ar
   127   109   102   am
   128    99    97   ar
   129    92    85   am
   130    92    93    1
   131    85    86    2
   132   148   149    1
   133    97    96    1
   134   108   106   am
   135   103   102    2
   136   102   101    1
   137   106   107    2
   138   106   105    1
   139   155   153   am
   140    96    93    1
   141    93    94    1
   142   149   152    1
   143   149   150    1
   144   104   105    1
   145   104   101    1
   146    95    94    2
   147   153   152    1
   148   153   154    2
   149   101   100    1
   150   150   151    2
