@<TRIPOS>MOLECULE
tmp/1a8uA00.pdb
 109 108 0 0 0
SMALL
GASTEIGER

@<TRIPOS>ATOM
      1  N         14.3230   39.8100   32.3470 N.3    31  GLY31      -0.1210
      2  CA        13.3540   38.9280   33.0220 C.3    31  GLY31       0.1956
      3  C         13.9240   37.5410   33.2880 C.2    31  GLY31       0.2611
      4  O         15.0160   37.1140   32.8600 O.2    31  GLY31      -0.2717
      5  N         13.0750   36.7140   33.9060 N.am   32  PHE32      -0.1976
      6  CA        13.4230   35.3120   34.1770 C.3    32  PHE32       0.1639
      7  C         13.2700   34.4330   32.9700 C.2    32  PHE32       0.2290
      8  O         12.2940   34.5900   32.2310 O.2    32  PHE32      -0.2864
      9  CB        12.3140   34.8220   35.1630 C.3    32  PHE32       0.0560
     10  CG        12.3810   33.3730   35.5510 C.ar   32  PHE32      -0.0200
     11  CD1       11.7520   32.3720   34.7980 C.ar   32  PHE32      -0.0042
     12  CD2       13.0620   33.0040   36.7090 C.ar   32  PHE32      -0.0042
     13  CE1       11.7900   31.0530   35.2040 C.ar   32  PHE32      -0.0003
     14  CE2       13.1350   31.6730   37.0960 C.ar   32  PHE32      -0.0003
     15  CZ        12.4700   30.7140   36.3560 C.ar   32  PHE32      -0.0000
     16  N         11.9700   44.5040   32.0220 N.3    97  PHE97      -0.1227
     17  CA        11.1820   43.5260   31.2680 C.3    97  PHE97       0.1736
     18  C         10.7540   42.5020   32.3190 C.2    97  PHE97       0.2596
     19  O         11.6220   41.8380   32.9230 O.2    97  PHE97      -0.2718
     20  CB        11.9920   42.8360   30.1490 C.3    97  PHE97       0.0547
     21  CG        11.1910   41.7140   29.5170 C.ar   97  PHE97      -0.0202
     22  CD1       10.2410   42.0380   28.5480 C.ar   97  PHE97      -0.0042
     23  CD2       11.3700   40.3920   29.8780 C.ar   97  PHE97      -0.0042
     24  CE1        9.4700   41.0330   27.9670 C.ar   97  PHE97      -0.0003
     25  CE2       10.6100   39.3990   29.2790 C.ar   97  PHE97      -0.0003
     26  CZ         9.6640   39.7080   28.3400 C.ar   97  PHE97      -0.0000
     27  N          9.4410   42.3220   32.4770 N.am   98  SER98      -0.1938
     28  CA         8.8780   41.2850   33.3330 C.3    98  SER98       0.2055
     29  C          9.4650   41.2670   34.7290 C.2    98  SER98       0.2642
     30  O          9.2550   42.2580   35.4360 O.2    98  SER98      -0.2714
     31  CB         8.9410   39.9410   32.5920 C.3    98  SER98       0.2130
     32  OG         8.0750   39.0040   33.2030 O.3    98  SER98      -0.2179
     33  N         10.2680   40.2690   35.1740 N.am   99  MET99      -0.1976
     34  CA        10.8590   40.4780   36.5020 C.3    99  MET99       0.1605
     35  C         11.5260   41.8360   36.6730 C.2    99  MET99       0.2287
     36  O         11.4630   42.3780   37.7710 O.2    99  MET99      -0.2864
     37  CB        11.8850   39.3880   36.8960 C.3    99  MET99       0.0413
     38  CG        11.1860   38.1100   37.4010 C.3    99  MET99       0.0598
     39  SD        12.3860   36.9490   38.1600 S.3    99  MET99      -0.1393
     40  CE        12.7570   37.8250   39.6820 C.3    99  MET99       0.0692
     41  N          4.9620   42.7660   35.7070 N.3   125  LEU125     -0.1245
     42  CA         4.3490   41.9720   36.7630 C.3   125  LEU125      0.1561
     43  C          3.1990   42.7570   37.4210 C.2   125  LEU125      0.2260
     44  O          2.3040   42.1390   38.0220 O.2   125  LEU125     -0.2867
     45  CB         5.3800   41.7510   37.8850 C.3   125  LEU125      0.0270
     46  CG         6.5820   40.8590   37.6060 C.3   125  LEU125      0.0019
     47  CD1        7.5220   40.8690   38.8160 C.3   125  LEU125      0.0001
     48  CD2        6.1700   39.4240   37.3060 C.3   125  LEU125      0.0001
     49  N          8.2590   26.0600   29.4290 N.3   163  PHE163     -0.1241
     50  CA         8.2190   27.4740   29.7960 C.3   163  PHE163      0.1605
     51  C          8.4940   28.3280   28.5740 C.2   163  PHE163      0.2264
     52  O          7.7220   29.2850   28.3380 O.2   163  PHE163     -0.2867
     53  CB         9.3060   27.7110   30.8790 C.3   163  PHE163      0.0534
     54  CG         9.4050   29.1680   31.2640 C.ar  163  PHE163     -0.0203
     55  CD1        8.5680   29.7100   32.2180 C.ar  163  PHE163     -0.0042
     56  CD2       10.3670   29.9630   30.6430 C.ar  163  PHE163     -0.0042
     57  CE1        8.6940   31.0680   32.5610 C.ar  163  PHE163     -0.0003
     58  CE2       10.4850   31.3000   30.9710 C.ar  163  PHE163     -0.0003
     59  CZ         9.6520   31.8370   31.9210 C.ar  163  PHE163     -0.0000
     60  N          6.3720   31.1300   26.5900 N.3   167  PHE167     -0.1241
     61  CA         6.9810   32.4470   26.6120 C.3   167  PHE167      0.1605
     62  C          6.9580   33.1320   25.2560 C.2   167  PHE167      0.2264
     63  O          6.6610   34.3140   25.1140 O.2   167  PHE167     -0.2867
     64  CB         8.4270   32.2550   27.0620 C.3   167  PHE167      0.0534
     65  CG         9.3250   33.3960   27.4210 C.ar  167  PHE167     -0.0203
     66  CD1        9.9870   34.1430   26.4640 C.ar  167  PHE167     -0.0042
     67  CD2        9.5470   33.6580   28.7620 C.ar  167  PHE167     -0.0042
     68  CE1       10.8680   35.1540   26.8100 C.ar  167  PHE167     -0.0003
     69  CE2       10.4250   34.6630   29.1270 C.ar  167  PHE167     -0.0003
     70  CZ        11.0850   35.4200   28.1650 C.ar  167  PHE167     -0.0000
     71  N          7.4900   36.5670   41.9120 N.3   205  TRP205     -0.1241
     72  CA         6.6610   37.0800   40.8080 C.3   205  TRP205      0.1605
     73  C          5.3600   37.7040   41.3040 C.2   205  TRP205      0.2264
     74  O          4.8410   38.6130   40.6480 O.2   205  TRP205     -0.2867
     75  CB         6.3040   35.9410   39.8500 C.3   205  TRP205      0.0550
     76  CG         7.4960   35.3390   39.1560 C.ar  205  TRP205      0.0003
     77  CD1        8.7750   35.8190   39.0750 C.ar  205  TRP205      0.0946
     78  CD2        7.4690   34.1180   38.4220 C.ar  205  TRP205      0.0152
     79  NE1        9.5510   34.9350   38.3470 N.ar  205  TRP205     -0.2442
     80  CE2        8.7730   33.8880   37.9410 C.ar  205  TRP205      0.0810
     81  CE3        6.4810   33.1520   38.1590 C.ar  205  TRP205      0.0012
     82  CZ2        9.1220   32.7770   37.1710 C.ar  205  TRP205      0.0191
     83  CZ3        6.8260   32.0420   37.4060 C.ar  205  TRP205      0.0001
     84  CH2        8.1400   31.8540   36.9310 C.ar  205  TRP205      0.0015
     85  N          2.1250   34.0830   29.5200 N.3   230  THR230     -0.1203
     86  CA         2.9120   33.9810   30.7430 C.3   230  THR230      0.1994
     87  C          2.3920   34.9290   31.8060 C.2   230  THR230      0.2617
     88  O          2.1690   34.5530   32.9550 O.2   230  THR230     -0.2717
     89  CB         4.3730   34.3030   30.3620 C.3   230  THR230      0.1784
     90  OG1        4.7500   33.4450   29.2610 O.3   230  THR230     -0.2211
     91  CG2        5.3170   34.0690   31.5200 C.3   230  THR230      0.0376
     92  N          2.2630   36.2100   31.4530 N.am  231  LEU231     -0.1979
     93  CA         1.6770   37.2380   32.3150 C.3   231  LEU231      0.1596
     94  C          0.4780   37.8170   31.5600 C.2   231  LEU231      0.2287
     95  O          0.6150   38.7340   30.7530 O.2   231  LEU231     -0.2864
     96  CB         2.7180   38.3270   32.6220 C.3   231  LEU231      0.0297
     97  CG         3.9520   37.9340   33.4500 C.3   231  LEU231      0.0022
     98  CD1        4.8860   39.1280   33.6720 C.3   231  LEU231      0.0001
     99  CD2        3.4990   37.4400   34.8250 C.3   231  LEU231      0.0001
    100  N          4.6920   36.8920   25.4140 N.3   257  HIS257     -0.1241
    101  CA         5.4950   37.4330   26.5160 C.3   257  HIS257      0.1621
    102  C          6.8720   37.8310   26.0370 C.2   257  HIS257      0.2264
    103  O          7.3430   38.9290   26.3720 O.2   257  HIS257     -0.2867
    104  CB         5.6620   36.3140   27.5520 C.3   257  HIS257      0.0745
    105  CG         6.2920   36.8170   28.8080 C.ar  257  HIS257      0.0817
    106  ND1        5.7150   37.7950   29.5800 N.ar  257  HIS257     -0.2268
    107  CD2        7.4730   36.4800   29.3880 C.ar  257  HIS257      0.1154
    108  CE1        6.5090   38.0270   30.6290 C.ar  257  HIS257      0.1986
    109  NE2        7.5620   37.2300   30.5350 N.ar  257  HIS257     -0.2212
@<TRIPOS>BOND
     1    63    62    2
     2    62    61    1
     3   100   101    1
     4   102   103    2
     5   102   101    1
     6    66    68   ar
     7    66    65   ar
     8   101   104    1
     9    60    61    1
    10    61    64    1
    11    68    70   ar
    12    64    65    1
    13    65    67   ar
    14   104   105    1
    15    24    26   ar
    16    24    22   ar
    17    70    69   ar
    18    52    51    2
    19    26    25   ar
    20    22    21   ar
    21    51    50    1
    22    67    69   ar
    23   105   107   ar
    24   105   106   ar
    25    90    89    1
    26    25    23   ar
    27   107   109   ar
    28    49    50    1
    29    21    23   ar
    30    21    20    1
    31    85    86    1
    32   106   108   ar
    33    50    53    1
    34    20    17    1
    35    89    86    1
    36    89    91    1
    37   109   108   ar
    38    56    58   ar
    39    56    54   ar
    40    86    87    1
    41    95    94    2
    42    53    54    1
    43    58    59   ar
    44    54    55   ar
    45    17    16    1
    46    17    18    1
    47    92    87   am
    48    92    93    1
    49    94    93    1
    50    87    88    2
    51    59    57   ar
    52    55    57   ar
    53     8     7    2
    54    93    96    1
    55    18    27   am
    56    18    19    2
    57     1     2    1
    58    27    28    1
    59    31    32    1
    60    31    28    1
    61    96    97    1
    62     4     3    2
    63     7     6    1
    64     2     3    1
    65     3     5   am
    66    28    29    1
    67    97    98    1
    68    97    99    1
    69     5     6    1
    70     6     9    1
    71    29    33   am
    72    29    30    2
    73    11    13   ar
    74    11    10   ar
    75     9    10    1
    76    33    34    1
    77    13    15   ar
    78    10    12   ar
    79    41    42    1
    80    15    14   ar
    81    34    35    1
    82    34    37    1
    83    35    36    2
    84    12    14   ar
    85    42    43    1
    86    42    45    1
    87    37    38    1
    88    84    82   ar
    89    84    83   ar
    90    82    80   ar
    91    48    46    1
    92    38    39    1
    93    83    81   ar
    94    43    44    2
    95    46    45    1
    96    46    47    1
    97    80    79   ar
    98    80    78   ar
    99    81    78   ar
   100    39    40    1
   101    79    77   ar
   102    78    76   ar
   103    77    76   ar
   104    76    75    1
   105    75    72    1
   106    74    73    2
   107    72    73    1
   108    72    71    1
