@<TRIPOS>MOLECULE
tmp/1a95B01.pdb
 106 104 0 0 0
SMALL
GASTEIGER

@<TRIPOS>ATOM
      1  N         22.5380  146.4070   15.6630 N.3    67  ARG67      -0.1245
      2  CA        22.9840  145.0320   15.5170 C.3    67  ARG67       0.1563
      3  C         23.3000  144.6460   14.0760 C.2    67  ARG67       0.2260
      4  O         22.6620  145.1210   13.1350 O.2    67  ARG67      -0.2867
      5  CB        21.9150  144.0970   16.0770 C.3    67  ARG67       0.0307
      6  CG        22.4490  142.8020   16.6360 C.3    67  ARG67       0.0489
      7  CD        21.3400  142.0050   17.2880 C.3    67  ARG67       0.2205
      8  NE        21.4940  141.9130   18.7370 N.pl3  67  ARG67      -0.0865
      9  CZ        20.7370  141.1540   19.5250 C.cat  67  ARG67       0.5346
     10  NH1       19.7610  140.4150   19.0090 N.pl3  67  ARG67       0.1354
     11  NH2       20.9610  141.1250   20.8320 N.pl3  67  ARG67       0.1354
     12  N         17.0380  128.7830   23.6560 N.3    87  ASP87      -0.1225
     13  CA        17.0760  128.7280   25.1100 C.3    87  ASP87       0.1805
     14  C         16.3170  129.8600   25.7930 C.2    87  ASP87       0.2597
     15  O         15.5730  129.6210   26.7430 O.2    87  ASP87      -0.2718
     16  CB        18.5200  128.6580   25.6160 C.3    87  ASP87       0.1424
     17  CG        19.3360  129.8760   25.2360 C.2    87  ASP87       0.3668
     18  OD1       19.0300  130.5080   24.2030 O.co2  87  ASP87      -0.2456
     19  OD2       20.2880  130.2040   25.9680 O.co2  87  ASP87      -0.2456
     20  N         16.4590  131.0760   25.2750 N.am   88  LEU88      -0.1979
     21  CA        15.7960  132.2290   25.8730 C.3    88  LEU88       0.1596
     22  C         15.5690  133.3800   24.9020 C.2    88  LEU88       0.2287
     23  O         16.1560  133.4240   23.8210 O.2    88  LEU88      -0.2864
     24  CB        16.6290  132.7430   27.0580 C.3    88  LEU88       0.0297
     25  CG        17.9540  133.4590   26.7480 C.3    88  LEU88       0.0022
     26  CD1       17.7370  134.9660   26.6220 C.3    88  LEU88       0.0001
     27  CD2       18.9520  133.1880   27.8560 C.3    88  LEU88       0.0001
     28  N         15.5600  137.5730   25.1440 N.3    90  ASP90      -0.1239
     29  CA        15.8620  138.7360   25.9680 C.3    90  ASP90       0.1674
     30  C         15.1730  139.9980   25.4630 C.2    90  ASP90       0.2266
     31  O         14.2630  140.5210   26.1080 O.2    90  ASP90      -0.2867
     32  CB        17.3750  138.9510   26.0290 C.3    90  ASP90       0.1410
     33  CG        17.8000  139.8020   27.2090 C.2    90  ASP90       0.3668
     34  OD1       17.1270  140.8110   27.5120 O.co2  90  ASP90      -0.2456
     35  OD2       18.8140  139.4580   27.8460 O.co2  90  ASP90      -0.2456
     36  N         11.8960  136.7250   28.8040 N.3   113  LYS113     -0.1245
     37  CA        11.8610  138.0080   29.4910 C.3   113  LYS113      0.1561
     38  C         10.6720  138.7930   28.9360 C.2   113  LYS113      0.2260
     39  O         10.2260  138.5370   27.8160 O.2   113  LYS113     -0.2867
     40  CB        13.1730  138.7650   29.2830 C.3   113  LYS113      0.0271
     41  CG        14.3670  138.0680   29.9090 C.3   113  LYS113      0.0035
     42  CD        15.6080  138.9310   29.8600 C.3   113  LYS113      0.0206
     43  CE        16.7980  138.2070   30.4630 C.3   113  LYS113      0.1093
     44  NZ        18.0150  139.0630   30.4870 N.3   113  LYS113     -0.1314
     45  N         20.0620  138.4720   34.6770 N.3   132  TRP132     -0.1227
     46  CA        20.9130  137.7870   33.7090 C.3   132  TRP132      0.1737
     47  C         20.8130  136.2830   33.9540 C.2   132  TRP132      0.2595
     48  O         21.0780  135.8100   35.0610 O.2   132  TRP132     -0.2718
     49  CB        22.3720  138.2410   33.8510 C.3   132  TRP132      0.0564
     50  CG        23.3190  137.5440   32.9040 C.ar  132  TRP132      0.0003
     51  CD1       24.1550  136.5030   33.1980 C.ar  132  TRP132      0.0946
     52  CD2       23.5110  137.8330   31.5100 C.ar  132  TRP132      0.0152
     53  NE1       24.8540  136.1250   32.0750 N.ar  132  TRP132     -0.2442
     54  CE2       24.4830  136.9210   31.0320 C.ar  132  TRP132      0.0810
     55  CE3       22.9640  138.7720   30.6290 C.ar  132  TRP132      0.0012
     56  CZ2       24.9100  136.9250   29.6950 C.ar  132  TRP132      0.0191
     57  CZ3       23.3930  138.7730   29.3010 C.ar  132  TRP132      0.0001
     58  CH2       24.3590  137.8540   28.8510 C.ar  132  TRP132      0.0015
     59  N         20.4220  135.5420   32.9210 N.am  133  ILE133     -0.1966
     60  CA        20.2850  134.0930   33.0180 C.3   133  ILE133      0.1727
     61  C         21.6300  133.4090   32.7970 C.2   133  ILE133      0.2616
     62  O         22.2290  133.5350   31.7310 O.2   133  ILE133     -0.2715
     63  CB        19.2780  133.5580   31.9790 C.3   133  ILE133      0.0290
     64  CG1       17.9360  134.2730   32.1380 C.3   133  ILE133      0.0022
     65  CG2       19.0950  132.0520   32.1450 C.3   133  ILE133      0.0023
     66  CD1       16.9360  133.9450   31.0530 C.3   133  ILE133      0.0001
     67  N         22.1060  132.6990   33.8150 N.am  134  GLU134     -0.1963
     68  CA        23.3770  131.9910   33.7240 C.3   134  GLU134      0.1733
     69  C         23.1170  130.5400   33.3190 C.2   134  GLU134      0.2616
     70  O         22.6890  129.7240   34.1430 O.2   134  GLU134     -0.2715
     71  CB        24.1150  132.0500   35.0640 C.3   134  GLU134      0.0429
     72  CG        25.5920  131.6820   34.9890 C.3   134  GLU134      0.1163
     73  CD        26.4520  132.7850   34.3940 C.2   134  GLU134      0.3649
     74  OE1       26.4160  132.9840   33.1590 O.co2 134  GLU134     -0.2457
     75  OE2       27.1700  133.4540   35.1670 O.co2 134  GLU134     -0.2457
     76  N         23.3590  130.2380   32.0460 N.am  135  GLN135     -0.1977
     77  CA        23.1360  128.8960   31.5300 C.3   135  GLN135      0.1601
     78  C         24.2100  127.9020   31.9850 C.2   135  GLN135      0.2287
     79  O         25.3370  128.2860   32.3000 O.2   135  GLN135     -0.2864
     80  CB        23.0170  128.9140   29.9930 C.3   135  GLN135      0.0394
     81  CG        21.7970  129.7380   29.4410 C.3   135  GLN135      0.0908
     82  CD        20.4290  129.0930   29.7240 C.2   135  GLN135      0.2608
     83  OE1       20.1460  128.5780   30.8300 O.2   135  GLN135     -0.2717
     84  NE2       19.5320  129.1950   28.7480 N.am  135  GLN135     -0.0878
     85  N         25.8420  125.4520   30.3340 N.3   137  TRP137     -0.1227
     86  CA        26.9760  125.2570   29.4540 C.3   137  TRP137      0.1737
     87  C         28.0750  126.2880   29.6030 C.2   137  TRP137      0.2595
     88  O         29.1760  126.1000   29.0900 O.2   137  TRP137     -0.2718
     89  CB        26.5260  125.1240   27.9990 C.3   137  TRP137      0.0564
     90  CG        25.5260  126.1440   27.5670 C.ar  137  TRP137      0.0003
     91  CD1       25.7790  127.4200   27.1560 C.ar  137  TRP137      0.0946
     92  CD2       24.1080  125.9660   27.4840 C.ar  137  TRP137      0.0152
     93  NE1       24.6030  128.0510   26.8190 N.ar  137  TRP137     -0.2442
     94  CE2       23.5630  127.1820   27.0130 C.ar  137  TRP137      0.0810
     95  CE3       23.2460  124.8990   27.7630 C.ar  137  TRP137      0.0012
     96  CZ2       22.1900  127.3570   26.8120 C.ar  137  TRP137      0.0191
     97  CZ3       21.8770  125.0750   27.5630 C.ar  137  TRP137      0.0001
     98  CH2       21.3650  126.2980   27.0940 C.ar  137  TRP137      0.0015
     99  N         27.7640  127.3790   30.2960 N.am  138  ASP138     -0.1974
    100  CA        28.7260  128.4490   30.5340 C.3   138  ASP138      0.1709
    101  C         29.3420  128.3310   31.9220 C.2   138  ASP138      0.2293
    102  O         30.2330  129.1000   32.2760 O.2   138  ASP138     -0.2864
    103  CB        28.0580  129.8230   30.3940 C.3   138  ASP138      0.1436
    104  CG        27.7020  130.1640   28.9590 C.2   138  ASP138      0.3671
    105  OD1       28.3620  129.6480   28.0350 O.co2 138  ASP138     -0.2456
    106  OD2       26.7640  130.9610   28.7560 O.co2 138  ASP138     -0.2456
@<TRIPOS>BOND
     1     4     3    2
     2     3     2    1
     3     2     1    1
     4     2     5    1
     5     5     6    1
     6     6     7    1
     7     7     8    1
     8     8     9    2
     9    10     9    1
    10     9    11    1
    11    12    13    1
    12    23    22    2
    13    18    17   ar
    14    22    21    1
    15    13    16    1
    16    13    14    1
    17    28    29    1
    18    17    16    1
    19    17    19   ar
    20    20    14   am
    21    20    21    1
    22    30    29    1
    23    30    31    2
    24    14    15    2
    25    21    24    1
    26    29    32    1
    27    32    33    1
    28    26    25    1
    29    25    24    1
    30    25    27    1
    31    96    94   ar
    32    96    98   ar
    33    93    94   ar
    34    93    91   ar
    35    94    92   ar
    36    98    97   ar
    37    91    90   ar
    38    33    34   ar
    39    33    35   ar
    40    92    90   ar
    41    92    95   ar
    42    97    95   ar
    43    90    89    1
    44    39    38    2
    45    89    86    1
    46   105   104   ar
    47    84    82   am
    48   106   104   ar
    49    36    37    1
    50    58    57   ar
    51    58    56   ar
    52    38    37    1
    53   104   103    1
    54    88    87    2
    55    40    37    1
    56    40    41    1
    57    57    55   ar
    58    81    82    1
    59    81    80    1
    60    86    87    1
    61    86    85    1
    62    87    99   am
    63    56    54   ar
    64    82    83    2
    65    42    41    1
    66    42    43    1
    67    80    77    1
    68    99   100    1
    69   103   100    1
    70    43    44    1
    71   100   101    1
    72    55    52   ar
    73    54    52   ar
    74    54    53   ar
    75    66    64    1
    76    52    50   ar
    77    77    78    1
    78    77    76    1
    79    62    61    2
    80   101   102    2
    81    63    64    1
    82    63    65    1
    83    63    60    1
    84    78    79    2
    85    76    69   am
    86    53    51   ar
    87    61    60    1
    88    61    67   am
    89    50    51   ar
    90    50    49    1
    91    59    60    1
    92    59    47   am
    93    74    73   ar
    94    69    68    1
    95    69    70    2
    96    46    49    1
    97    46    47    1
    98    46    45    1
    99    68    67    1
   100    68    71    1
   101    47    48    2
   102    73    72    1
   103    73    75   ar
   104    72    71    1
