@<TRIPOS>MOLECULE
tmp/1a96B01.pdb
 95 94 0 0 0
SMALL
GASTEIGER

@<TRIPOS>ATOM
      1  N         17.0070  128.8780   23.6780 N.3    87  ASP87      -0.1225
      2  CA        17.0310  128.7780   25.1330 C.3    87  ASP87       0.1805
      3  C         16.2580  129.9030   25.8120 C.2    87  ASP87       0.2597
      4  O         15.5490  129.6720   26.7910 O.2    87  ASP87      -0.2718
      5  CB        18.4700  128.7230   25.6590 C.3    87  ASP87       0.1424
      6  CG        19.3020  129.9190   25.2480 C.2    87  ASP87       0.3668
      7  OD1       19.0430  130.4790   24.1640 O.co2  87  ASP87      -0.2456
      8  OD2       20.2180  130.2940   26.0120 O.co2  87  ASP87      -0.2456
      9  N         16.3580  131.1110   25.2680 N.am   88  LEU88      -0.1979
     10  CA        15.6790  132.2550   25.8620 C.3    88  LEU88       0.1596
     11  C         15.4560  133.4050   24.8910 C.2    88  LEU88       0.2287
     12  O         16.0270  133.4370   23.8000 O.2    88  LEU88      -0.2864
     13  CB        16.4950  132.7650   27.0590 C.3    88  LEU88       0.0297
     14  CG        17.9280  133.2410   26.7730 C.3    88  LEU88       0.0022
     15  CD1       17.9410  134.7250   26.4290 C.3    88  LEU88       0.0001
     16  CD2       18.8120  132.9890   27.9820 C.3    88  LEU88       0.0001
     17  N         15.4960  137.5950   25.0970 N.3    90  ASP90      -0.1239
     18  CA        15.8220  138.7580   25.9130 C.3    90  ASP90       0.1674
     19  C         15.1010  140.0020   25.4060 C.2    90  ASP90       0.2266
     20  O         14.1130  140.4440   25.9960 O.2    90  ASP90      -0.2867
     21  CB        17.3380  138.9780   25.9140 C.3    90  ASP90       0.1410
     22  CG        17.7800  140.0150   26.9280 C.2    90  ASP90       0.3668
     23  OD1       17.1630  141.1010   27.0010 O.co2  90  ASP90      -0.2456
     24  OD2       18.7550  139.7520   27.6570 O.co2  90  ASP90      -0.2456
     25  N         11.8990  136.7680   28.8600 N.3   113  LYS113     -0.1245
     26  CA        11.8730  138.0490   29.5490 C.3   113  LYS113      0.1561
     27  C         10.6840  138.8230   28.9700 C.2   113  LYS113      0.2260
     28  O         10.2620  138.5620   27.8410 O.2   113  LYS113     -0.2867
     29  CB        13.1870  138.8050   29.3370 C.3   113  LYS113      0.0271
     30  CG        14.3770  138.1480   30.0120 C.3   113  LYS113      0.0035
     31  CD        15.6290  138.9900   29.8850 C.3   113  LYS113      0.0206
     32  CE        16.8090  138.3140   30.5550 C.3   113  LYS113      0.1093
     33  NZ        18.0580  139.1170   30.4400 N.3   113  LYS113     -0.1314
     34  N         20.1100  138.5150   34.6420 N.3   132  TRP132     -0.1227
     35  CA        20.9560  137.8210   33.6760 C.3   132  TRP132      0.1737
     36  C         20.8610  136.3150   33.9170 C.2   132  TRP132      0.2595
     37  O         21.1400  135.8380   35.0180 O.2   132  TRP132     -0.2718
     38  CB        22.4160  138.2710   33.8040 C.3   132  TRP132      0.0564
     39  CG        23.3410  137.5450   32.8630 C.ar  132  TRP132      0.0003
     40  CD1       24.1400  136.4740   33.1590 C.ar  132  TRP132      0.0946
     41  CD2       23.5380  137.8190   31.4720 C.ar  132  TRP132      0.0152
     42  NE1       24.8170  136.0620   32.0360 N.ar  132  TRP132     -0.2442
     43  CE2       24.4670  136.8710   30.9860 C.ar  132  TRP132      0.0810
     44  CE3       23.0200  138.7740   30.5860 C.ar  132  TRP132      0.0012
     45  CZ2       24.8890  136.8500   29.6530 C.ar  132  TRP132      0.0191
     46  CZ3       23.4410  138.7530   29.2590 C.ar  132  TRP132      0.0001
     47  CH2       24.3660  137.7950   28.8070 C.ar  132  TRP132      0.0015
     48  N         20.4760  135.5740   32.8820 N.am  133  ILE133     -0.1966
     49  CA        20.3390  134.1240   32.9800 C.3   133  ILE133      0.1727
     50  C         21.6790  133.4240   32.7610 C.2   133  ILE133      0.2616
     51  O         22.2880  133.5450   31.6970 O.2   133  ILE133     -0.2715
     52  CB        19.3180  133.5900   31.9520 C.3   133  ILE133      0.0290
     53  CG1       17.9930  134.3420   32.0950 C.3   133  ILE133      0.0022
     54  CG2       19.0920  132.0960   32.1580 C.3   133  ILE133      0.0023
     55  CD1       16.9730  133.9910   31.0380 C.3   133  ILE133      0.0001
     56  N         22.1440  132.7090   33.7800 N.am  134  GLU134     -0.1963
     57  CA        23.4090  131.9910   33.6820 C.3   134  GLU134      0.1733
     58  C         23.1260  130.5380   33.3030 C.2   134  GLU134      0.2616
     59  O         22.6890  129.7420   34.1350 O.2   134  GLU134     -0.2715
     60  CB        24.1680  132.0620   35.0080 C.3   134  GLU134      0.0429
     61  CG        25.6510  131.7360   34.8980 C.3   134  GLU134      0.1163
     62  CD        26.4810  132.8930   34.3570 C.2   134  GLU134      0.3649
     63  OE1       26.4480  133.1470   33.1310 O.co2 134  GLU134     -0.2457
     64  OE2       27.1770  133.5470   35.1630 O.co2 134  GLU134     -0.2457
     65  N         23.3560  130.2120   32.0340 N.am  135  GLN135     -0.1977
     66  CA        23.1230  128.8660   31.5150 C.3   135  GLN135      0.1601
     67  C         24.2020  127.8900   31.9910 C.2   135  GLN135      0.2287
     68  O         25.3140  128.2950   32.3290 O.2   135  GLN135     -0.2864
     69  CB        23.0190  128.9110   29.9900 C.3   135  GLN135      0.0394
     70  CG        21.8150  129.7970   29.7210 C.3   135  GLN135      0.0908
     71  CD        20.4850  129.0920   29.8880 C.2   135  GLN135      0.2608
     72  OE1       20.2920  128.3310   30.8360 O.2   135  GLN135     -0.2717
     73  NE2       19.5060  129.2860   29.0120 N.am  135  GLN135     -0.0878
     74  N         25.8610  125.4770   30.3410 N.3   137  TRP137     -0.1227
     75  CA        27.0060  125.2460   29.4660 C.3   137  TRP137      0.1737
     76  C         28.1020  126.3020   29.6250 C.2   137  TRP137      0.2595
     77  O         29.2130  126.1300   29.1250 O.2   137  TRP137     -0.2718
     78  CB        26.5790  125.1470   27.9950 C.3   137  TRP137      0.0564
     79  CG        25.5710  126.1700   27.5620 C.ar  137  TRP137      0.0003
     80  CD1       25.8230  127.4440   27.1400 C.ar  137  TRP137      0.0946
     81  CD2       24.1480  126.0020   27.5010 C.ar  137  TRP137      0.0152
     82  NE1       24.6470  128.0770   26.8150 N.ar  137  TRP137     -0.2442
     83  CE2       23.6050  127.2120   27.0250 C.ar  137  TRP137      0.0810
     84  CE3       23.2810  124.9460   27.8000 C.ar  137  TRP137      0.0012
     85  CZ2       22.2360  127.3930   26.8360 C.ar  137  TRP137      0.0191
     86  CZ3       21.9230  125.1300   27.6150 C.ar  137  TRP137      0.0001
     87  CH2       21.4140  126.3430   27.1370 C.ar  137  TRP137      0.0015
     88  N         27.7820  127.3890   30.3230 N.am  138  ASP138     -0.1974
     89  CA        28.7400  128.4660   30.5690 C.3   138  ASP138      0.1709
     90  C         29.3620  128.3420   31.9560 C.2   138  ASP138      0.2293
     91  O         30.2510  129.1120   32.3170 O.2   138  ASP138     -0.2864
     92  CB        28.0650  129.8360   30.4450 C.3   138  ASP138      0.1436
     93  CG        27.6350  130.1540   29.0280 C.2   138  ASP138      0.3671
     94  OD1       28.2930  129.6830   28.0770 O.co2 138  ASP138     -0.2456
     95  OD2       26.6390  130.8870   28.8640 O.co2 138  ASP138     -0.2456
@<TRIPOS>BOND
     1     1     2    1
     2    12    11    2
     3     7     6   ar
     4    11    10    1
     5    17    18    1
     6     2     5    1
     7     2     3    1
     8     6     5    1
     9     6     8   ar
    10     9     3   am
    11     9    10    1
    12    19    18    1
    13    19    20    2
    14     3     4    2
    15    10    13    1
    16    18    21    1
    17    21    22    1
    18    15    14    1
    19    14    13    1
    20    14    16    1
    21    82    83   ar
    22    82    80   ar
    23    85    83   ar
    24    85    87   ar
    25    22    23   ar
    26    22    24   ar
    27    83    81   ar
    28    87    86   ar
    29    80    79   ar
    30    81    79   ar
    31    81    84   ar
    32    79    78    1
    33    86    84   ar
    34    28    27    2
    35    78    75    1
    36    94    93   ar
    37    47    46   ar
    38    47    45   ar
    39    25    26    1
    40    95    93   ar
    41    27    26    1
    42    73    71   am
    43    93    92    1
    44    77    76    2
    45    46    44   ar
    46    29    26    1
    47    29    30    1
    48    75    76    1
    49    75    74    1
    50    76    88   am
    51    45    43   ar
    52    70    71    1
    53    70    69    1
    54    31    30    1
    55    31    32    1
    56    71    72    2
    57    69    66    1
    58    88    89    1
    59    33    32    1
    60    92    89    1
    61    89    90    1
    62    44    41   ar
    63    43    41   ar
    64    43    42   ar
    65    55    53    1
    66    41    39   ar
    67    66    67    1
    68    66    65    1
    69    51    50    2
    70    52    53    1
    71    52    54    1
    72    52    49    1
    73    90    91    2
    74    67    68    2
    75    65    58   am
    76    42    40   ar
    77    50    49    1
    78    50    56   am
    79    39    40   ar
    80    39    38    1
    81    48    49    1
    82    48    36   am
    83    63    62   ar
    84    58    57    1
    85    58    59    2
    86    35    38    1
    87    35    36    1
    88    35    34    1
    89    57    56    1
    90    57    60    1
    91    36    37    2
    92    62    61    1
    93    62    64   ar
    94    61    60    1
