@<TRIPOS>MOLECULE
tmp/1a96B00.pdb
 133 129 0 0 0
SMALL
GASTEIGER

@<TRIPOS>ATOM
      1  N         18.1490  126.6560   17.3810 N.3    33  VAL33      -0.1231
      2  CA        18.8660  127.8950   17.1080 C.3    33  VAL33       0.1692
      3  C         20.2260  127.8140   17.7970 C.2    33  VAL33       0.2593
      4  O         20.3150  127.8900   19.0240 O.2    33  VAL33      -0.2718
      5  CB        18.1010  129.1320   17.6420 C.3    33  VAL33       0.0266
      6  CG1       18.8720  130.4060   17.3240 C.3    33  VAL33       0.0020
      7  CG2       16.7030  129.1940   17.0410 C.3    33  VAL33       0.0020
      8  N         21.2750  127.6250   17.0040 N.am   34  SER34      -0.1938
      9  CA        22.6340  127.5310   17.5260 C.3    34  SER34       0.2055
     10  C         23.0530  128.8680   18.1440 C.2    34  SER34       0.2643
     11  O         22.7940  129.9210   17.5650 O.2    34  SER34      -0.2714
     12  CB        23.5910  127.1450   16.3960 C.3    34  SER34       0.2130
     13  OG        24.9280  127.0800   16.8520 O.3    34  SER34      -0.2179
     14  N         23.7030  128.8370   19.3080 N.am   35  ARG35      -0.1963
     15  CA        24.0430  127.6060   20.0220 C.3    35  ARG35       0.1729
     16  C         23.1350  127.3690   21.2280 C.2    35  ARG35       0.2616
     17  O         23.0990  126.2660   21.7750 O.2    35  ARG35      -0.2715
     18  CB        25.4940  127.6730   20.5140 C.3    35  ARG35       0.0348
     19  CG        26.5370  127.8530   19.4220 C.3    35  ARG35       0.0492
     20  CD        27.9060  128.1560   20.0100 C.3    35  ARG35       0.2205
     21  NE        27.9190  129.4310   20.7240 N.pl3  35  ARG35      -0.0865
     22  CZ        29.0160  130.1260   21.0090 C.cat  35  ARG35       0.5346
     23  NH1       30.2090  129.6760   20.6450 N.pl3  35  ARG35       0.1354
     24  NH2       28.9200  131.2820   21.6480 N.pl3  35  ARG35       0.1354
     25  N         22.4200  128.4120   21.6430 N.am   36  GLY36      -0.1955
     26  CA        21.5410  128.3230   22.7980 C.3    36  GLY36       0.1869
     27  C         20.4460  127.2710   22.7600 C.2    36  GLY36       0.2309
     28  O         20.1630  126.6340   23.7760 O.2    36  GLY36      -0.2863
     29  N         22.8530  131.7840   13.4340 N.3    58  ILE58      -0.1245
     30  CA        22.8210  133.2290   13.2450 C.3    58  ILE58       0.1561
     31  C         23.8710  133.8960   14.1240 C.2    58  ILE58       0.2260
     32  O         23.8840  133.7130   15.3440 O.2    58  ILE58      -0.2867
     33  CB        21.4240  133.8230   13.5680 C.3    58  ILE58       0.0252
     34  CG1       20.3990  133.3450   12.5400 C.3    58  ILE58       0.0019
     35  CG2       21.4810  135.3480   13.5780 C.3    58  ILE58       0.0019
     36  CD1       19.0370  133.9890   12.6850 C.3    58  ILE58       0.0001
     37  N         25.5060  137.2940   15.6430 N.3    60  SER60      -0.1217
     38  CA        25.1790  138.6750   15.9830 C.3    60  SER60       0.1889
     39  C         26.4370  139.4750   16.3100 C.2    60  SER60       0.2288
     40  O         27.4410  138.9190   16.7600 O.2    60  SER60      -0.2866
     41  CB        24.2120  138.7130   17.1610 C.3    60  SER60       0.2089
     42  OG        24.7330  138.1250   18.3330 O.3    60  SER60      -0.2183
     43  N         22.5720  146.4390   15.5730 N.3    67  ARG67      -0.1245
     44  CA        22.9870  145.0450   15.4840 C.3    67  ARG67       0.1563
     45  C         23.1830  144.6060   14.0370 C.2    67  ARG67       0.2260
     46  O         22.4290  145.0100   13.1500 O.2    67  ARG67      -0.2867
     47  CB        21.9220  144.1620   16.1390 C.3    67  ARG67       0.0307
     48  CG        22.3720  142.7490   16.4400 C.3    67  ARG67       0.0489
     49  CD        22.4120  142.5110   17.9360 C.3    67  ARG67       0.2205
     50  NE        21.2960  141.6910   18.3990 N.pl3  67  ARG67      -0.0865
     51  CZ        21.0500  141.4130   19.6760 C.cat  67  ARG67       0.5346
     52  NH1       21.8370  141.8960   20.6300 N.pl3  67  ARG67       0.1354
     53  NH2       20.0320  140.6260   19.9990 N.pl3  67  ARG67       0.1354
     54  N         14.8140  127.8360   20.9870 N.3    86  ASP86      -0.1225
     55  CA        15.9440  128.6020   21.4900 C.3    86  ASP86       0.1805
     56  C         15.9180  128.5320   23.0120 C.2    86  ASP86       0.2598
     57  O         14.9070  128.1630   23.6080 O.2    86  ASP86      -0.2718
     58  CB        15.8790  130.0430   20.9730 C.3    86  ASP86       0.1424
     59  CG        17.2430  130.7030   20.8900 C.2    86  ASP86       0.3668
     60  OD1       18.2310  130.0870   21.3410 O.co2  86  ASP86      -0.2456
     61  OD2       17.3230  131.8390   20.3760 O.co2  86  ASP86      -0.2456
     62  N         17.0070  128.8780   23.6780 N.am   87  ASP87      -0.1960
     63  CA        17.0310  128.7780   25.1330 C.3    87  ASP87       0.1840
     64  C         16.2580  129.9030   25.8120 C.2    87  ASP87       0.2622
     65  O         15.5490  129.6720   26.7910 O.2    87  ASP87      -0.2715
     66  CB        18.4700  128.7230   25.6590 C.3    87  ASP87       0.1450
     67  CG        19.3020  129.9190   25.2480 C.2    87  ASP87       0.3671
     68  OD1       19.0430  130.4790   24.1640 O.co2  87  ASP87      -0.2456
     69  OD2       20.2180  130.2940   26.0120 O.co2  87  ASP87      -0.2456
     70  N         16.3580  131.1110   25.2680 N.am   88  LEU88      -0.1963
     71  CA        15.6790  132.2550   25.8620 C.3    88  LEU88       0.1728
     72  C         15.4560  133.4050   24.8910 C.2    88  LEU88       0.2616
     73  O         16.0270  133.4370   23.8000 O.2    88  LEU88      -0.2715
     74  CB        16.4950  132.7650   27.0590 C.3    88  LEU88       0.0311
     75  CG        17.9280  133.2410   26.7730 C.3    88  LEU88       0.0022
     76  CD1       17.9410  134.7250   26.4290 C.3    88  LEU88       0.0001
     77  CD2       18.8120  132.9890   27.9820 C.3    88  LEU88       0.0001
     78  N         14.6100  134.3450   25.3040 N.am   89  VAL89      -0.1963
     79  CA        14.3210  135.5470   24.5260 C.3    89  VAL89       0.1727
     80  C         14.5430  136.7410   25.4530 C.2    89  VAL89       0.2616
     81  O         13.8870  136.8640   26.4880 O.2    89  VAL89      -0.2715
     82  CB        12.8750  135.5740   23.9660 C.3    89  VAL89       0.0290
     83  CG1       12.7780  134.7080   22.7190 C.3    89  VAL89       0.0023
     84  CG2       11.8810  135.1080   25.0160 C.3    89  VAL89       0.0023
     85  N         15.4960  137.5950   25.0970 N.am   90  ASP90      -0.1957
     86  CA        15.8220  138.7580   25.9130 C.3    90  ASP90       0.1840
     87  C         15.1010  140.0020   25.4060 C.2    90  ASP90       0.2623
     88  O         14.1130  140.4440   25.9960 O.2    90  ASP90      -0.2715
     89  CB        17.3380  138.9780   25.9140 C.3    90  ASP90       0.1450
     90  CG        17.7800  140.0150   26.9280 C.2    90  ASP90       0.3671
     91  OD1       17.1630  141.1010   27.0010 O.co2  90  ASP90      -0.2456
     92  OD2       18.7550  139.7520   27.6570 O.co2  90  ASP90      -0.2456
     93  N         15.6390  140.5910   24.3440 N.am   91  THR91      -0.1937
     94  CA        15.0480  141.7800   23.7480 C.3    91  THR91       0.2028
     95  C         14.0660  141.3530   22.6650 C.2    91  THR91       0.2643
     96  O         13.1490  142.0990   22.3150 O.2    91  THR91      -0.2714
     97  CB        16.1260  142.6880   23.1220 C.3    91  THR91       0.1808
     98  OG1       16.8400  141.9620   22.1120 O.3    91  THR91      -0.2208
     99  CG2       17.1020  143.1670   24.1880 C.3    91  THR91       0.0379
    100  N         14.2630  140.1370   22.1550 N.am   92  GLY92      -0.1939
    101  CA        13.4130  139.5970   21.1100 C.3    92  GLY92       0.2014
    102  C         13.9760  139.8420   19.7230 C.2    92  GLY92       0.2639
    103  O         13.3120  139.5770   18.7200 O.2    92  GLY92      -0.2714
    104  N         15.2100  140.3380   19.6690 N.am   93  GLY93      -0.1939
    105  CA        15.8590  140.6150   18.3980 C.3    93  GLY93       0.2014
    106  C         16.0420  139.3940   17.5210 C.2    93  GLY93       0.2640
    107  O         15.7330  139.4270   16.3300 O.2    93  GLY93      -0.2714
    108  N         16.5440  138.3130   18.1030 N.am   94  THR94      -0.1936
    109  CA        16.7540  137.0810   17.3510 C.3    94  THR94       0.2028
    110  C         15.4170  136.4410   16.9790 C.2    94  THR94       0.2642
    111  O         15.2440  135.9530   15.8630 O.2    94  THR94      -0.2714
    112  CB        17.5900  136.0700   18.1600 C.3    94  THR94       0.1808
    113  OG1       18.8090  136.6920   18.5860 O.3    94  THR94      -0.2208
    114  CG2       17.9160  134.8480   17.3090 C.3    94  THR94       0.0379
    115  N         14.4690  136.4790   17.9130 N.am   95  ALA95      -0.1977
    116  CA        13.1410  135.9080   17.7020 C.3    95  ALA95       0.1597
    117  C         12.4560  136.4710   16.4580 C.2    95  ALA95       0.2287
    118  O         11.9220  135.7140   15.6470 O.2    95  ALA95      -0.2864
    119  CB        12.2700  136.1320   18.9320 C.3    95  ALA95       0.0319
    120  N         25.8610  125.4770   30.3410 N.3   137  TRP137     -0.1241
    121  CA        27.0060  125.2460   29.4660 C.3   137  TRP137      0.1605
    122  C         28.1020  126.3020   29.6250 C.2   137  TRP137      0.2264
    123  O         29.2130  126.1300   29.1250 O.2   137  TRP137     -0.2867
    124  CB        26.5790  125.1470   27.9950 C.3   137  TRP137      0.0550
    125  CG        25.5710  126.1700   27.5620 C.ar  137  TRP137      0.0003
    126  CD1       25.8230  127.4440   27.1400 C.ar  137  TRP137      0.0946
    127  CD2       24.1480  126.0020   27.5010 C.ar  137  TRP137      0.0152
    128  NE1       24.6470  128.0770   26.8150 N.ar  137  TRP137     -0.2442
    129  CE2       23.6050  127.2120   27.0250 C.ar  137  TRP137      0.0810
    130  CE3       23.2810  124.9460   27.8000 C.ar  137  TRP137      0.0012
    131  CZ2       22.2360  127.3930   26.8360 C.ar  137  TRP137      0.0191
    132  CZ3       21.9230  125.1300   27.6150 C.ar  137  TRP137      0.0001
    133  CH2       21.4140  126.3430   27.1370 C.ar  137  TRP137      0.0015
@<TRIPOS>BOND
     1    34    36    1
     2    34    33    1
     3    46    45    2
     4    30    29    1
     5    30    33    1
     6    30    31    1
     7    33    35    1
     8    45    44    1
     9    31    32    2
    10    44    43    1
    11    44    47    1
    12    37    38    1
    13   118   117    2
    14   111   110    2
    15    38    39    1
    16    38    41    1
    17    47    48    1
    18    39    40    2
    19   107   106    2
    20    12    13    1
    21    12     9    1
    22    48    49    1
    23   117   116    1
    24   110   109    1
    25   110   115   am
    26     8     9    1
    27     8     3   am
    28     7     5    1
    29     2     1    1
    30     2     5    1
    31     2     3    1
    32    41    42    1
    33   114   112    1
    34     6     5    1
    35   109   108    1
    36   109   112    1
    37   106   108   am
    38   106   105    1
    39     9    10    1
    40    11    10    2
    41   116   115    1
    42   116   119    1
    43     3     4    2
    44    49    50    1
    45    10    14   am
    46   112   113    1
    47   105   104    1
    48    50    51    2
    49   103   102    2
    50    14    15    1
    51    19    20    1
    52    19    18    1
    53   104   102   am
    54    51    53    1
    55    51    52    1
    56   102   101    1
    57    20    21    1
    58    15    18    1
    59    15    16    1
    60    61    59   ar
    61    23    22    1
    62    21    22    2
    63    59    58    1
    64    59    60   ar
    65    58    55    1
    66    54    55    1
    67    22    24    1
    68   101   100    1
    69    16    25   am
    70    16    17    2
    71    55    56    1
    72    25    26    1
    73    98    97    1
    74   100    95   am
    75    96    95    2
    76    95    94    1
    77    83    82    1
    78    27    26    1
    79    27    28    2
    80    56    57    2
    81    56    62   am
    82    97    94    1
    83    97    99    1
    84    62    63    1
    85    94    93    1
    86    73    72    2
    87    82    79    1
    88    82    84    1
    89    68    67   ar
    90    93    87   am
    91    79    78    1
    92    79    80    1
    93    72    78   am
    94    72    71    1
    95    85    80   am
    96    85    86    1
    97    63    66    1
    98    63    64    1
    99    67    66    1
   100    67    69   ar
   101    70    64   am
   102    70    71    1
   103    87    86    1
   104    87    88    2
   105    80    81    2
   106    64    65    2
   107    71    74    1
   108    86    89    1
   109    89    90    1
   110    76    75    1
   111    75    74    1
   112    75    77    1
   113   128   129   ar
   114   128   126   ar
   115   131   129   ar
   116   131   133   ar
   117    90    91   ar
   118    90    92   ar
   119   129   127   ar
   120   133   132   ar
   121   126   125   ar
   122   127   125   ar
   123   127   130   ar
   124   125   124    1
   125   132   130   ar
   126   124   121    1
   127   123   122    2
   128   121   122    1
   129   121   120    1
