@<TRIPOS>MOLECULE
tmp/1a97C00.pdb
 152 150 0 0 0
SMALL
GASTEIGER

@<TRIPOS>ATOM
      1  N         34.2380  116.2560   57.8150 N.3    36  GLY36      -0.1225
      2  CA        34.1620  115.3850   56.6530 C.3    36  GLY36       0.1811
      3  C         33.1730  114.2350   56.6580 C.2    36  GLY36       0.2280
      4  O         32.6170  113.8990   55.6120 O.2    36  GLY36      -0.2866
      5  N         52.0190  116.2050   63.9390 N.3    67  ARG67      -0.1245
      6  CA        50.6490  116.6700   64.1020 C.3    67  ARG67       0.1563
      7  C         50.2720  116.9470   65.5430 C.2    67  ARG67       0.2260
      8  O         50.6930  116.2370   66.4610 O.2    67  ARG67      -0.2867
      9  CB        49.6500  115.6480   63.5640 C.3    67  ARG67       0.0307
     10  CG        49.4580  115.6540   62.0710 C.3    67  ARG67       0.0489
     11  CD        48.1720  114.9350   61.7180 C.3    67  ARG67       0.2205
     12  NE        48.0690  114.6150   60.2970 N.pl3  67  ARG67      -0.0865
     13  CZ        47.1090  113.8580   59.7760 C.cat  67  ARG67       0.5346
     14  NH1       46.1660  113.3460   60.5590 N.pl3  67  ARG67       0.1354
     15  NH2       47.0870  113.6160   58.4740 N.pl3  67  ARG67       0.1354
     16  N         33.8370  108.6090   58.3530 N.3    86  ASP86      -0.1225
     17  CA        34.5590  109.7840   57.8940 C.3    86  ASP86       0.1805
     18  C         34.4540  109.7800   56.3560 C.2    86  ASP86       0.2598
     19  O         33.9810  108.8080   55.7660 O.2    86  ASP86      -0.2718
     20  CB        36.0220  109.7380   58.3520 C.3    86  ASP86       0.1424
     21  CG        36.6820  111.1080   58.3300 C.2    86  ASP86       0.3668
     22  OD1       35.9710  112.1200   58.1400 O.co2  86  ASP86      -0.2456
     23  OD2       37.9150  111.1770   58.5070 O.co2  86  ASP86      -0.2456
     24  N         34.8600  110.8620   55.7030 N.am   87  ASP87      -0.1960
     25  CA        34.7550  110.9090   54.2480 C.3    87  ASP87       0.1840
     26  C         35.8260  110.0910   53.5340 C.2    87  ASP87       0.2622
     27  O         35.5240  109.3350   52.6110 O.2    87  ASP87      -0.2715
     28  CB        34.7420  112.3600   53.7460 C.3    87  ASP87       0.1450
     29  CG        35.9840  113.1360   54.1460 C.2    87  ASP87       0.3671
     30  OD1       36.5850  112.8200   55.1980 O.co2  87  ASP87      -0.2456
     31  OD2       36.3580  114.0720   53.4090 O.co2  87  ASP87      -0.2456
     32  N         37.0650  110.2080   53.9990 N.am   88  LEU88      -0.1963
     33  CA        38.1810  109.4930   53.3920 C.3    88  LEU88       0.1728
     34  C         39.3250  109.2960   54.3800 C.2    88  LEU88       0.2616
     35  O         39.3900  109.9600   55.4150 O.2    88  LEU88      -0.2715
     36  CB        38.6950  110.2730   52.1780 C.3    88  LEU88       0.0311
     37  CG        39.3700  111.6210   52.4680 C.3    88  LEU88       0.0022
     38  CD1       40.8800  111.4740   52.3420 C.3    88  LEU88       0.0001
     39  CD2       38.8630  112.6890   51.5090 C.3    88  LEU88       0.0001
     40  N         40.2350  108.3910   54.0360 N.am   89  VAL89      -0.1963
     41  CA        41.4010  108.1100   54.8640 C.3    89  VAL89       0.1727
     42  C         42.6620  108.2010   53.9960 C.2    89  VAL89       0.2616
     43  O         42.8540  107.4090   53.0720 O.2    89  VAL89      -0.2715
     44  CB        41.2770  106.7270   55.5680 C.3    89  VAL89       0.0290
     45  CG1       41.1200  105.6030   54.5540 C.3    89  VAL89       0.0023
     46  CG2       42.4670  106.4860   56.4740 C.3    89  VAL89       0.0023
     47  N         43.4860  109.2120   54.2660 N.am   90  ASP90      -0.1957
     48  CA        44.7180  109.4440   53.5110 C.3    90  ASP90       0.1840
     49  C         45.9010  108.6490   54.0610 C.2    90  ASP90       0.2623
     50  O         46.3680  107.7010   53.4260 O.2    90  ASP90      -0.2715
     51  CB        45.0480  110.9410   53.5010 C.3    90  ASP90       0.1450
     52  CG        46.0680  111.3220   52.4340 C.2    90  ASP90       0.3671
     53  OD1       46.7590  110.4340   51.8860 O.co2  90  ASP90      -0.2456
     54  OD2       46.1770  112.5300   52.1400 O.co2  90  ASP90      -0.2456
     55  N         46.4140  109.0660   55.2160 N.am   91  THR91      -0.1937
     56  CA        47.5440  108.3800   55.8390 C.3    91  THR91       0.2028
     57  C         47.0970  107.5080   57.0080 C.2    91  THR91       0.2643
     58  O         47.7850  106.5570   57.3790 O.2    91  THR91      -0.2714
     59  CB        48.6250  109.3700   56.3370 C.3    91  THR91       0.1808
     60  OG1       48.0960  110.1800   57.3940 O.3    91  THR91      -0.2208
     61  CG2       49.0990  110.2640   55.2000 C.3    91  THR91       0.0379
     62  N         45.9390  107.8350   57.5750 N.am   92  GLY92      -0.1939
     63  CA        45.4200  107.0760   58.6960 C.3    92  GLY92       0.2014
     64  C         45.6910  107.7300   60.0360 C.2    92  GLY92       0.2639
     65  O         45.3960  107.1450   61.0780 O.2    92  GLY92      -0.2714
     66  N         46.2390  108.9440   60.0140 N.am   93  GLY93      -0.1939
     67  CA        46.5320  109.6550   61.2470 C.3    93  GLY93       0.2014
     68  C         45.2850  109.8810   62.0800 C.2    93  GLY93       0.2640
     69  O         45.2690  109.6120   63.2820 O.2    93  GLY93      -0.2714
     70  N         44.2310  110.3530   61.4230 N.am   94  THR94      -0.1936
     71  CA        42.9580  110.6160   62.0800 C.3    94  THR94       0.2028
     72  C         42.2500  109.2940   62.3660 C.2    94  THR94       0.2642
     73  O         41.5600  109.1570   63.3740 O.2    94  THR94      -0.2714
     74  CB        42.0500  111.4910   61.1880 C.3    94  THR94       0.1808
     75  OG1       42.8140  112.5780   60.6520 O.3    94  THR94      -0.2208
     76  CG2       40.9030  112.0670   61.9980 C.3    94  THR94       0.0379
     77  N         42.4540  108.3170   61.4850 N.am   95  ALA95      -0.1977
     78  CA        41.8400  106.9970   61.6160 C.3    95  ALA95       0.1597
     79  C         42.3060  106.2360   62.8560 C.2    95  ALA95       0.2287
     80  O         41.4880  105.6700   63.5830 O.2    95  ALA95      -0.2864
     81  CB        42.1020  106.1720   60.3660 C.3    95  ALA95       0.0319
     82  N         42.6660  105.7430   50.4790 N.3   113  LYS113     -0.1245
     83  CA        43.9570  105.6770   49.8070 C.3   113  LYS113      0.1561
     84  C         44.7250  104.4580   50.3530 C.2   113  LYS113      0.2260
     85  O         44.3600  103.9130   51.3950 O.2   113  LYS113     -0.2867
     86  CB        44.7220  107.0060   50.0020 C.3   113  LYS113      0.0271
     87  CG        44.0280  108.1950   49.3370 C.3   113  LYS113      0.0035
     88  CD        44.8410  109.4650   49.4830 C.3   113  LYS113      0.0206
     89  CE        44.0790  110.6740   48.9730 C.3   113  LYS113      0.1093
     90  NZ        44.8540  111.9350   49.1350 N.3   113  LYS113     -0.1314
     91  N         44.4600  113.8900   44.7960 N.3   132  TRP132     -0.1227
     92  CA        43.7040  114.7010   45.7490 C.3   132  TRP132      0.1737
     93  C         42.2240  114.5780   45.3880 C.2   132  TRP132      0.2595
     94  O         41.8740  114.4990   44.2120 O.2   132  TRP132     -0.2718
     95  CB        44.1400  116.1710   45.6840 C.3   132  TRP132      0.0564
     96  CG        43.4260  117.0670   46.6720 C.ar  132  TRP132      0.0003
     97  CD1       42.2980  117.8060   46.4450 C.ar  132  TRP132      0.0946
     98  CD2       43.7810  117.2930   48.0450 C.ar  132  TRP132      0.0152
     99  NE1       41.9250  118.4720   47.5910 N.ar  132  TRP132     -0.2442
    100  CE2       42.8180  118.1760   48.5880 C.ar  132  TRP132      0.0810
    101  CE3       44.8180  116.8350   48.8700 C.ar  132  TRP132      0.0012
    102  CZ2       42.8610  118.6080   49.9180 C.ar  132  TRP132      0.0191
    103  CZ3       44.8590  117.2660   50.1960 C.ar  132  TRP132      0.0001
    104  CH2       43.8850  118.1440   50.7050 C.ar  132  TRP132      0.0015
    105  N         41.3640  114.5570   46.4020 N.am  133  ILE133     -0.1966
    106  CA        39.9210  114.4370   46.2020 C.3   133  ILE133      0.1727
    107  C         39.2080  115.7510   46.4870 C.2   133  ILE133      0.2616
    108  O         39.2830  116.2710   47.5980 O.2   133  ILE133     -0.2715
    109  CB        39.3160  113.4000   47.1610 C.3   133  ILE133      0.0290
    110  CG1       40.0980  112.0930   47.0950 C.3   133  ILE133      0.0022
    111  CG2       37.8500  113.1670   46.8310 C.3   133  ILE133      0.0023
    112  CD1       39.9370  111.2500   48.3370 C.3   133  ILE133      0.0001
    113  N         38.5230  116.2900   45.4870 N.am  134  GLU134     -0.1963
    114  CA        37.7740  117.5200   45.6810 C.3   134  GLU134      0.1733
    115  C         36.3560  117.1420   46.0840 C.2   134  GLU134      0.2616
    116  O         35.5920  116.6150   45.2730 O.2   134  GLU134     -0.2715
    117  CB        37.7700  118.3680   44.4070 C.3   134  GLU134      0.0429
    118  CG        39.0240  119.2070   44.2170 C.3   134  GLU134      0.1163
    119  CD        39.0880  120.3970   45.1630 C.2   134  GLU134      0.3649
    120  OE1       39.2010  120.1970   46.3920 O.co2 134  GLU134     -0.2457
    121  OE2       39.0290  121.5420   44.6720 O.co2 134  GLU134     -0.2457
    122  N         36.0350  117.3430   47.3590 N.am  135  GLN135     -0.1977
    123  CA        34.7080  117.0220   47.8540 C.3   135  GLN135      0.1601
    124  C         33.6870  118.0440   47.3980 C.2   135  GLN135      0.2287
    125  O         34.0410  119.1710   47.0570 O.2   135  GLN135     -0.2864
    126  CB        34.7540  116.8250   49.3660 C.3   135  GLN135      0.0394
    127  CG        35.7110  115.6740   49.7070 C.3   135  GLN135      0.0908
    128  CD        35.1280  114.2680   49.4830 C.2   135  GLN135      0.2608
    129  OE1       34.2420  114.0300   48.6480 O.2   135  GLN135     -0.2717
    130  NE2       35.6600  113.3050   50.2330 N.am  135  GLN135     -0.0878
    131  N         31.3660  119.6450   49.0050 N.3   137  TRP137     -0.1227
    132  CA        31.1610  120.7800   49.8820 C.3   137  TRP137      0.1737
    133  C         32.1750  121.8940   49.7290 C.2   137  TRP137      0.2595
    134  O         31.9620  122.9970   50.2240 O.2   137  TRP137     -0.2718
    135  CB        31.0140  120.3360   51.3430 C.3   137  TRP137      0.0564
    136  CG        32.0210  119.3320   51.8090 C.ar  137  TRP137      0.0003
    137  CD1       33.2570  119.5880   52.3320 C.ar  137  TRP137      0.0946
    138  CD2       31.8590  117.9090   51.8420 C.ar  137  TRP137      0.0152
    139  NE1       33.8730  118.4140   52.6930 N.ar  137  TRP137     -0.2442
    140  CE2       33.0390  117.3680   52.4010 C.ar  137  TRP137      0.0810
    141  CE3       30.8330  117.0380   51.4540 C.ar  137  TRP137      0.0012
    142  CZ2       33.2200  115.9920   52.5800 C.ar  137  TRP137      0.0191
    143  CZ3       31.0140  115.6680   51.6310 C.ar  137  TRP137      0.0001
    144  CH2       32.2010  115.1610   52.1880 C.ar  137  TRP137      0.0015
    145  N         33.2710  121.6020   49.0360 N.am  138  ASP138     -0.1974
    146  CA        34.3190  122.5890   48.7980 C.3   138  ASP138      0.1709
    147  C         34.2130  123.1510   47.3820 C.2   138  ASP138      0.2293
    148  O         35.0390  123.9670   46.9620 O.2   138  ASP138     -0.2864
    149  CB        35.7050  121.9620   48.9900 C.3   138  ASP138      0.1436
    150  CG        36.0160  121.6520   50.4420 C.2   138  ASP138      0.3671
    151  OD1       35.7370  122.5050   51.3090 O.co2 138  ASP138     -0.2456
    152  OD2       36.5510  120.5580   50.7170 O.co2 138  ASP138     -0.2456
@<TRIPOS>BOND
     1    94    93    2
     2   118   117    1
     3   118   119    1
     4   117   114    1
     5   121   119   ar
     6    91    92    1
     7   119   120   ar
     8   116   115    2
     9    93    92    1
    10    93   105   am
    11   113   114    1
    12   113   107   am
    13   114   115    1
    14    95    92    1
    15    95    96    1
    16   115   122   am
    17   106   105    1
    18   106   107    1
    19   106   109    1
    20    97    96   ar
    21    97    99   ar
    22   107   108    2
    23    96    98   ar
    24   111   109    1
    25   148   147    2
    26   125   124    2
    27   110   109    1
    28   110   112    1
    29   122   123    1
    30   147   146    1
    31   124   123    1
    32    99   100   ar
    33   123   126    1
    34    98   100   ar
    35    98   101   ar
    36   100   102   ar
    37   129   128    2
    38   146   149    1
    39   146   145    1
    40   101   103   ar
    41    89    90    1
    42    89    88    1
    43   149   150    1
    44   131   132    1
    45   145   133   am
    46    87    88    1
    47    87    86    1
    48   126   127    1
    49   128   127    1
    50   128   130   am
    51   133   132    1
    52   133   134    2
    53    83    86    1
    54    83    84    1
    55    83    82    1
    56   132   135    1
    57   102   104   ar
    58   103   104   ar
    59    84    85    2
    60   150   152   ar
    61   150   151   ar
    62   135   136    1
    63   141   143   ar
    64   141   138   ar
    65    39    37    1
    66   143   144   ar
    67   136   138   ar
    68   136   137   ar
    69   138   140   ar
    70    53    52   ar
    71    54    52   ar
    72    36    37    1
    73    36    33    1
    74   144   142   ar
    75   137   139   ar
    76    38    37    1
    77   140   142   ar
    78   140   139   ar
    79    52    51    1
    80    27    26    2
    81    43    42    2
    82    33    32    1
    83    33    34    1
    84    31    29   ar
    85    50    49    2
    86    51    48    1
    87    48    49    1
    88    48    47    1
    89    26    32   am
    90    26    25    1
    91    28    29    1
    92    28    25    1
    93    42    47   am
    94    42    41    1
    95    40    34   am
    96    40    41    1
    97    49    55   am
    98    29    30   ar
    99    25    24    1
   100    34    35    2
   101    45    44    1
   102    41    44    1
   103    61    59    1
   104    55    56    1
   105    44    46    1
   106     4     3    2
   107    24    18   am
   108    19    18    2
   109    56    59    1
   110    56    57    1
   111    59    60    1
   112    18    17    1
   113     2     3    1
   114     2     1    1
   115    57    58    2
   116    57    62   am
   117    62    63    1
   118    17    20    1
   119    17    16    1
   120    22    21   ar
   121    21    20    1
   122    21    23   ar
   123    15    13    1
   124    63    64    1
   125    13    12    2
   126    13    14    1
   127    66    64   am
   128    66    67    1
   129    64    65    2
   130    12    11    1
   131    81    78    1
   132    75    74    1
   133    74    76    1
   134    74    71    1
   135    67    68    1
   136    70    68   am
   137    70    71    1
   138    77    78    1
   139    77    72   am
   140    78    79    1
   141    11    10    1
   142    10     9    1
   143    68    69    2
   144    71    72    1
   145    72    73    2
   146    79    80    2
   147     9     6    1
   148     5     6    1
   149     6     7    1
   150     7     8    2
