@<TRIPOS>MOLECULE
tmp/1a9mA00.pdb
 110 104 0 0 0
SMALL
GASTEIGER

@<TRIPOS>ATOM
      1  N         38.8760    8.9450   72.5220 N.3     8  ARG8       -0.1245
      2  CA        39.4580   10.2550   72.6730 C.3     8  ARG8        0.1563
      3  C         40.2110   10.3540   73.9810 C.2     8  ARG8        0.2260
      4  O         39.6910    9.9610   75.0300 O.2     8  ARG8       -0.2867
      5  CB        38.3600   11.3180   72.6480 C.3     8  ARG8        0.0307
      6  CG        37.6990   11.4800   71.3070 C.3     8  ARG8        0.0489
      7  CD        37.4570   12.9350   70.9950 C.3     8  ARG8        0.2205
      8  NE        36.6640   13.0640   69.7780 N.pl3   8  ARG8       -0.0865
      9  CZ        35.3340   13.0180   69.7460 C.cat   8  ARG8        0.5346
     10  NH1       34.6450   12.8620   70.8730 N.pl3   8  ARG8        0.1354
     11  NH2       34.6930   13.0640   68.5850 N.pl3   8  ARG8        0.1354
     12  N         41.6730   17.3280   75.9590 N.3    23  LEU23      -0.1245
     13  CA        42.1390   16.2630   75.1120 C.3    23  LEU23       0.1561
     14  C         43.6300   16.3830   74.8890 C.2    23  LEU23       0.2260
     15  O         44.1050   17.4700   74.6020 O.2    23  LEU23      -0.2867
     16  CB        41.4120   16.4170   73.7900 C.3    23  LEU23       0.0270
     17  CG        41.5730   15.4480   72.6560 C.3    23  LEU23       0.0019
     18  CD1       40.6140   14.3130   72.8870 C.3    23  LEU23       0.0001
     19  CD2       41.1860   16.1950   71.4110 C.3    23  LEU23       0.0001
     20  N         46.4720   16.3050   72.7300 N.3    25  ASP25      -0.1239
     21  CA        46.5030   16.4260   71.2810 C.3    25  ASP25       0.1674
     22  C         47.9190   16.6190   70.7110 C.2    25  ASP25       0.2266
     23  O         48.4780   17.7090   70.8210 O.2    25  ASP25      -0.2867
     24  CB        45.5850   17.6180   70.9080 C.3    25  ASP25       0.1410
     25  CG        45.3190   17.7490   69.3960 C.2    25  ASP25       0.3668
     26  OD1       45.8340   16.9440   68.5870 O.co2  25  ASP25      -0.2456
     27  OD2       44.5950   18.6880   69.0220 O.co2  25  ASP25      -0.2456
     28  N         48.7650   16.8030   67.5970 N.3    27  GLY27      -0.1210
     29  CA        48.7300   17.6070   66.3910 C.3    27  GLY27       0.1956
     30  C         48.6890   19.0850   66.7080 C.2    27  GLY27       0.2612
     31  O         48.8090   19.9050   65.8000 O.2    27  GLY27      -0.2717
     32  N         48.5060   19.4390   67.9840 N.am   28  ALA28      -0.1965
     33  CA        48.4720   20.8480   68.3770 C.3    28  ALA28       0.1728
     34  C         49.8150   21.3540   68.9130 C.2    28  ALA28       0.2616
     35  O         50.3850   20.7800   69.8320 O.2    28  ALA28      -0.2715
     36  CB        47.3350   21.1170   69.3760 C.3    28  ALA28       0.0334
     37  N         50.3660   22.3770   68.2750 N.am   29  ASP29      -0.1971
     38  CA        51.6300   22.9390   68.7380 C.3    29  ASP29       0.1709
     39  C         51.4280   23.4980   70.1360 C.2    29  ASP29       0.2293
     40  O         52.2570   23.3200   71.0210 O.2    29  ASP29      -0.2864
     41  CB        52.0260   24.1300   67.8700 C.3    29  ASP29       0.1436
     42  CG        52.4410   23.7510   66.4720 C.2    29  ASP29       0.3671
     43  OD1       52.9070   22.6200   66.2570 O.co2  29  ASP29      -0.2456
     44  OD2       52.3370   24.6130   65.5810 O.co2  29  ASP29      -0.2456
     45  N         44.9910   25.1700   73.6080 N.3    32  VAL32      -0.1245
     46  CA        43.8730   26.1030   73.4070 C.3    32  VAL32       0.1561
     47  C         42.7280   25.7220   74.3170 C.2    32  VAL32       0.2260
     48  O         42.3120   24.5790   74.3570 O.2    32  VAL32      -0.2867
     49  CB        43.3390   26.1100   71.9390 C.3    32  VAL32       0.0252
     50  CG1       42.4320   27.3090   71.7300 C.3    32  VAL32       0.0019
     51  CG2       44.4830   26.1300   70.9440 C.3    32  VAL32       0.0019
     52  N         45.5760   31.4240   65.2100 N.3    47  ILE47      -0.1231
     53  CA        45.9480   30.0350   65.0760 C.3    47  ILE47       0.1692
     54  C         45.2310   29.4390   63.8930 C.2    47  ILE47       0.2592
     55  O         44.1920   29.9300   63.4430 O.2    47  ILE47      -0.2718
     56  CB        45.7030   29.1820   66.3550 C.3    47  ILE47       0.0266
     57  CG1       44.2420   29.1980   66.7590 C.3    47  ILE47       0.0019
     58  CG2       46.6410   29.6280   67.4900 C.3    47  ILE47       0.0020
     59  CD1       43.9670   28.3230   67.9460 C.3    47  ILE47       0.0001
     60  N         45.8160   28.3770   63.3770 N.am   48  HIS48      -0.1962
     61  CA        45.2740   27.7080   62.2310 C.3    48  HIS48       0.1787
     62  C         44.8520   26.2940   62.5930 C.2    48  HIS48       0.2621
     63  O         45.6050   25.5340   63.2070 O.2    48  HIS48      -0.2715
     64  CB        46.3240   27.7020   61.1360 C.3    48  HIS48       0.0785
     65  CG        45.8300   27.2060   59.8210 C.ar   48  HIS48       0.0821
     66  ND1       46.6840   26.8420   58.8030 N.ar   48  HIS48      -0.2267
     67  CD2       44.5760   27.0460   59.3400 C.ar   48  HIS48       0.1154
     68  CE1       45.9760   26.4870   57.7470 C.ar   48  HIS48       0.1986
     69  NE2       44.6940   26.5980   58.0480 N.ar   48  HIS48      -0.2212
     70  N         43.5990   25.9980   62.2950 N.am   49  GLY49      -0.1940
     71  CA        43.0620   24.6840   62.5460 C.3    49  GLY49       0.2014
     72  C         42.6920   24.0890   61.2010 C.2    49  GLY49       0.2638
     73  O         43.0310   24.6400   60.1360 O.2    49  GLY49      -0.2714
     74  N         41.9640   22.9800   61.2450 N.am   50  ILE50      -0.1977
     75  CA        41.5450   22.3130   60.0410 C.3    50  ILE50       0.1596
     76  C         40.5010   23.1200   59.2770 C.2    50  ILE50       0.2287
     77  O         40.5960   23.2470   58.0630 O.2    50  ILE50      -0.2864
     78  CB        41.0430   20.8860   60.3470 C.3    50  ILE50       0.0276
     79  CG1       41.4050   19.9640   59.1940 C.3    50  ILE50       0.0022
     80  CG2       39.5380   20.8550   60.5650 C.3    50  ILE50       0.0022
     81  CD1       41.1310   18.5480   59.5100 C.3    50  ILE50       0.0001
     82  N         37.2290   27.3680   70.5710 N.3    80  THR80      -0.1204
     83  CA        37.5990   26.0030   70.2410 C.3    80  THR80       0.1979
     84  C         36.4210   25.1330   70.6790 C.2    80  THR80       0.2460
     85  O         35.6660   25.4940   71.5790 O.2    80  THR80      -0.2732
     86  CB        38.9140   25.5810   70.9640 C.3    80  THR80       0.1783
     87  OG1       39.2400   24.2260   70.6470 O.3    80  THR80      -0.2211
     88  CG2       38.7840   25.7310   72.4540 C.3    80  THR80       0.0376
     89  N         36.1600   24.0540   69.9460 N.am   81  PRO81      -0.2717
     90  CA        35.0650   23.1320   70.2570 C.3    81  PRO81       0.1535
     91  C         35.3240   22.2850   71.5140 C.2    81  PRO81       0.2598
     92  O         34.3850   21.7060   72.0740 O.2    81  PRO81      -0.2715
     93  CB        35.0210   22.2530   69.0090 C.3    81  PRO81       0.0310
     94  CG        35.5490   23.1680   67.9120 C.3    81  PRO81       0.0237
     95  CD        36.6970   23.8050   68.5950 C.3    81  PRO81       0.0939
     96  N         36.6060   22.1500   71.8800 N.am   82  VAL82      -0.1978
     97  CA        37.0790   21.3770   73.0500 C.3    82  VAL82       0.1596
     98  C         38.4030   21.9360   73.5460 C.2    82  VAL82       0.2287
     99  O         39.1980   22.4310   72.7390 O.2    82  VAL82      -0.2864
    100  CB        37.5340   19.9480   72.6930 C.3    82  VAL82       0.0276
    101  CG1       36.8210   18.9370   73.5470 C.3    82  VAL82       0.0022
    102  CG2       37.4550   19.6880   71.1950 C.3    82  VAL82       0.0022
    103  N         42.1460   21.7990   74.3780 N.3    84  ILE84      -0.1245
    104  CA        43.2520   21.0750   73.7660 C.3    84  ILE84       0.1561
    105  C         44.5630   21.3220   74.5130 C.2    84  ILE84       0.2260
    106  O         44.9260   22.4670   74.7940 O.2    84  ILE84      -0.2867
    107  CB        43.4290   21.5460   72.2940 C.3    84  ILE84       0.0252
    108  CG1       42.2160   21.1350   71.4530 C.3    84  ILE84       0.0019
    109  CG2       44.7260   21.0390   71.7090 C.3    84  ILE84       0.0019
    110  CD1       42.3730   21.4520   69.9930 C.3    84  ILE84       0.0001
@<TRIPOS>BOND
     1    68    69   ar
     2    68    66   ar
     3    69    67   ar
     4    77    76    2
     5    66    65   ar
     6    79    81    1
     7    79    78    1
     8    76    75    1
     9    67    65   ar
    10    65    64    1
    11    75    78    1
    12    75    74    1
    13    73    72    2
    14    78    80    1
    15    64    61    1
    16    72    74   am
    17    72    71    1
    18    61    62    1
    19    61    60    1
    20    70    71    1
    21    70    62   am
    22    62    63    2
    23    60    54   am
    24    55    54    2
    25    54    53    1
    26    53    52    1
    27    53    56    1
    28    44    42   ar
    29    31    30    2
    30    43    42   ar
    31    56    57    1
    32    56    58    1
    33    29    30    1
    34    29    28    1
    35    42    41    1
    36    30    32   am
    37    57    59    1
    38    41    38    1
    39    94    95    1
    40    94    93    1
    41    32    33    1
    42    37    38    1
    43    37    34   am
    44    33    34    1
    45    33    36    1
    46    11     9    1
    47    26    25   ar
    48    95    89    1
    49    38    39    1
    50    34    35    2
    51    93    90    1
    52    27    25   ar
    53    25    24    1
    54     9     8    2
    55     9    10    1
    56     8     7    1
    57    89    90    1
    58    89    84   am
    59   110   108    1
    60    39    40    2
    61    83    82    1
    62    83    84    1
    63    83    86    1
    64    90    91    1
    65    87    86    1
    66    84    85    2
    67    22    23    2
    68    22    21    1
    69    24    21    1
    70    51    49    1
    71    86    88    1
    72     7     6    1
    73   102   100    1
    74    21    20    1
    75     6     5    1
    76    19    17    1
    77   108   107    1
    78    91    96   am
    79    91    92    2
    80   109   107    1
    81    50    49    1
    82    96    97    1
    83    49    46    1
    84   107   104    1
    85     1     2    1
    86     5     2    1
    87    17    18    1
    88    17    16    1
    89     2     3    1
    90   100    97    1
    91   100   101    1
    92    99    98    2
    93    97    98    1
    94    46    45    1
    95    46    47    1
    96   104   103    1
    97   104   105    1
    98    16    13    1
    99     3     4    2
   100    47    48    2
   101   105   106    2
   102    15    14    2
   103    14    13    1
   104    13    12    1
