@<TRIPOS>MOLECULE
tmp/1a9sA00.pdb
 153 145 0 0 0
SMALL
GASTEIGER

@<TRIPOS>ATOM
      1  N         14.4530   92.3820   75.2990 N.3    33  SER33      -0.1217
      2  CA        14.9920   93.0270   76.4990 C.3    33  SER33       0.1889
      3  C         14.9480   94.5510   76.4130 C.2    33  SER33       0.2288
      4  O         15.4480   95.1400   75.4510 O.2    33  SER33      -0.2866
      5  CB        16.4360   92.5720   76.7390 C.3    33  SER33       0.2089
      6  OG        16.5230   91.1780   76.9890 O.3    33  SER33      -0.2183
      7  N         13.9810   82.1760   75.9500 N.3    86  HIS86      -0.1241
      8  CA        15.2950   81.9430   75.3750 C.3    86  HIS86       0.1621
      9  C         15.7670   80.5400   75.7100 C.2    86  HIS86       0.2264
     10  O         15.3770   79.9630   76.7290 O.2    86  HIS86      -0.2867
     11  CB        16.3070   82.9390   75.9390 C.3    86  HIS86       0.0745
     12  CG        15.8490   84.3640   75.9150 C.ar   86  HIS86       0.0817
     13  ND1       14.9710   84.8820   76.8450 N.ar   86  HIS86      -0.2268
     14  CD2       16.1870   85.3920   75.1030 C.ar   86  HIS86       0.1154
     15  CE1       14.7930   86.1680   76.6090 C.ar   86  HIS86       0.1986
     16  NE2       15.5220   86.5020   75.5590 N.ar   86  HIS86      -0.2212
     17  N         18.7880   79.7400   76.6310 N.3    88  TYR88      -0.1241
     18  CA        19.6420   79.7510   77.8220 C.3    88  TYR88       0.1605
     19  C         18.8890   79.6130   79.1470 C.2    88  TYR88       0.2264
     20  O         19.5070   79.3960   80.1830 O.2    88  TYR88      -0.2867
     21  CB        20.5700   80.9790   77.8570 C.3    88  TYR88       0.0534
     22  CG        19.8820   82.3300   77.9090 C.ar   88  TYR88      -0.0201
     23  CD1       19.1990   82.7480   79.0500 C.ar   88  TYR88      -0.0009
     24  CD2       19.9040   83.1830   76.8050 C.ar   88  TYR88      -0.0009
     25  CE1       18.5480   83.9800   79.0920 C.ar   88  TYR88       0.0417
     26  CE2       19.2630   84.4130   76.8380 C.ar   88  TYR88       0.0417
     27  CZ        18.5850   84.8050   77.9810 C.ar   88  TYR88       0.1957
     28  OH        17.9470   86.0290   78.0020 O.3    88  TYR88      -0.2866
     29  N         14.5570   92.8310   69.4760 N.3   115  ASN115     -0.1225
     30  CA        15.5310   92.2820   70.4080 C.3   115  ASN115      0.1785
     31  C         16.5990   93.3100   70.7120 C.2   115  ASN115      0.2597
     32  O         16.6670   94.3590   70.0720 O.2   115  ASN115     -0.2718
     33  CB        16.1710   90.9930   69.8600 C.3   115  ASN115      0.1169
     34  CG        16.9720   91.2190   68.5850 C.2   115  ASN115      0.2627
     35  OD1       17.8460   92.0810   68.5300 O.2   115  ASN115     -0.2716
     36  ND2       16.6790   90.4400   67.5570 N.am  115  ASN115     -0.0877
     37  N         17.3940   93.0210   71.7320 N.am  116  ALA116     -0.1979
     38  CA        18.4970   93.8770   72.1360 C.3   116  ALA116      0.1597
     39  C         19.7040   93.1090   71.6140 C.2   116  ALA116      0.2287
     40  O         19.8010   91.8990   71.8340 O.2   116  ALA116     -0.2864
     41  CB        18.5450   93.9750   73.6570 C.3   116  ALA116      0.0319
     42  N         24.1970   93.1430   70.4940 N.3   118  GLY118     -0.1225
     43  CA        25.5090   93.7530   70.5900 C.3   118  GLY118      0.1811
     44  C         25.9280   94.1130   69.1810 C.2   118  GLY118      0.2280
     45  O         25.7120   93.3350   68.2510 O.2   118  GLY118     -0.2866
     46  N         21.7280   89.5910   61.5100 N.3   192  TYR192     -0.1241
     47  CA        21.6920   89.2730   62.9230 C.3   192  TYR192      0.1605
     48  C         22.1890   87.8360   63.1000 C.2   192  TYR192      0.2264
     49  O         21.7750   86.9420   62.3660 O.2   192  TYR192     -0.2867
     50  CB        20.2550   89.4080   63.4270 C.3   192  TYR192      0.0534
     51  CG        20.0530   88.9770   64.8550 C.ar  192  TYR192     -0.0201
     52  CD1       20.2620   89.8620   65.9100 C.ar  192  TYR192     -0.0009
     53  CD2       19.6310   87.6850   65.1560 C.ar  192  TYR192     -0.0009
     54  CE1       20.0510   89.4710   67.2250 C.ar  192  TYR192      0.0417
     55  CE2       19.4230   87.2900   66.4640 C.ar  192  TYR192      0.0417
     56  CZ        19.6340   88.1870   67.4930 C.ar  192  TYR192      0.1957
     57  OH        19.4270   87.7850   68.7920 O.3   192  TYR192     -0.2866
     58  N         24.2620   81.7860   78.0540 N.3   198  PRO198     -0.2116
     59  CA        23.9320   83.1450   78.5020 C.3   198  PRO198      0.1372
     60  C         25.1050   84.0900   78.7650 C.2   198  PRO198      0.2244
     61  O         24.9050   85.2560   79.0880 O.2   198  PRO198     -0.2868
     62  CB        23.1500   82.8820   79.7790 C.3   198  PRO198      0.0268
     63  CG        23.8860   81.7110   80.3590 C.3   198  PRO198      0.0207
     64  CD        24.1230   80.8230   79.1650 C.3   198  PRO198      0.0892
     65  N         28.4140   86.4460   77.9310 N.3   200  PHE200     -0.1227
     66  CA        28.6960   87.3690   76.8460 C.3   200  PHE200      0.1736
     67  C         29.9420   86.8660   76.1160 C.2   200  PHE200      0.2595
     68  O         30.7370   86.1070   76.6740 O.2   200  PHE200     -0.2718
     69  CB        28.8730   88.7970   77.3660 C.3   200  PHE200      0.0547
     70  CG        27.5700   89.4910   77.6970 C.ar  200  PHE200     -0.0202
     71  CD1       26.6920   89.8630   76.6880 C.ar  200  PHE200     -0.0042
     72  CD2       27.2370   89.7890   79.0120 C.ar  200  PHE200     -0.0042
     73  CE1       25.4990   90.5250   76.9790 C.ar  200  PHE200     -0.0003
     74  CE2       26.0480   90.4510   79.3150 C.ar  200  PHE200     -0.0003
     75  CZ        25.1790   90.8200   78.2970 C.ar  200  PHE200     -0.0000
     76  N         30.1300   87.3430   74.8930 N.am  201  GLU201     -0.1979
     77  CA        31.2280   86.9070   74.0360 C.3   201  GLU201      0.1602
     78  C         32.6300   87.3570   74.4360 C.2   201  GLU201      0.2287
     79  O         32.8200   88.3780   75.1000 O.2   201  GLU201     -0.2864
     80  CB        30.9620   87.3400   72.5860 C.3   201  GLU201      0.0415
     81  CG        29.6380   86.8690   71.9670 C.3   201  GLU201      0.1163
     82  CD        28.4020   87.5800   72.5350 C.2   201  GLU201      0.3649
     83  OE1       28.4570   88.7990   72.7920 O.co2 201  GLU201     -0.2457
     84  OE2       27.3650   86.9160   72.7290 O.co2 201  GLU201     -0.2457
     85  N         24.9740   90.7090   67.2770 N.3   217  VAL217     -0.1231
     86  CA        24.9020   89.4000   67.9110 C.3   217  VAL217      0.1692
     87  C         23.8550   89.3780   69.0340 C.2   217  VAL217      0.2593
     88  O         23.7050   90.3530   69.7760 O.2   217  VAL217     -0.2718
     89  CB        26.3080   88.9840   68.4370 C.3   217  VAL217      0.0266
     90  CG1       26.8950   90.0880   69.3110 C.3   217  VAL217      0.0020
     91  CG2       26.2410   87.6670   69.1970 C.3   217  VAL217      0.0020
     92  N         23.1240   88.2740   69.1420 N.am  218  GLY218     -0.1942
     93  CA        22.1050   88.1640   70.1690 C.3   218  GLY218      0.2014
     94  C         21.8240   86.7190   70.5130 C.2   218  GLY218      0.2639
     95  O         22.3580   85.8200   69.8620 O.2   218  GLY218     -0.2714
     96  N         20.9580   86.4940   71.5010 N.am  219  MET219     -0.1963
     97  CA        20.6250   85.1490   71.9680 C.3   219  MET219      0.1736
     98  C         19.1580   84.7500   71.7740 C.2   219  MET219      0.2617
     99  O         18.5890   84.0340   72.6120 O.2   219  MET219     -0.2715
    100  CB        20.9740   85.0410   73.4550 C.3   219  MET219      0.0427
    101  CG        22.4150   85.4030   73.7870 C.3   219  MET219      0.0599
    102  SD        22.6820   85.5800   75.5640 S.3   219  MET219     -0.1393
    103  CE        24.3600   86.2610   75.6230 C.3   219  MET219      0.0692
    104  N         18.5370   85.1970   70.6860 N.am  220  SER220     -0.1950
    105  CA        17.1280   84.8720   70.4590 C.3   220  SER220      0.1924
    106  C         16.6970   85.1970   69.0360 C.2   220  SER220      0.2314
    107  O         17.5220   85.2840   68.1250 O.2   220  SER220     -0.2863
    108  CB        16.2650   85.7100   71.3990 C.3   220  SER220      0.2116
    109  OG        16.2110   87.0580   70.9250 O.3   220  SER220     -0.2180
    110  N         22.4010   97.7590   71.8210 N.3   242  THR242     -0.1203
    111  CA        22.5500   98.1700   73.2100 C.3   242  THR242      0.1994
    112  C         23.9780   98.4250   73.6680 C.2   242  THR242      0.2617
    113  O         24.1930   99.0650   74.6930 O.2   242  THR242     -0.2717
    114  CB        21.8510   97.1710   74.1760 C.3   242  THR242      0.1784
    115  OG1       22.3040   95.8400   73.9120 O.3   242  THR242     -0.2211
    116  CG2       20.3330   97.2330   73.9990 C.3   242  THR242      0.0376
    117  N         24.9550   97.9660   72.9010 N.am  243  ASN243     -0.1974
    118  CA        26.3450   98.1700   73.2740 C.3   243  ASN243      0.1688
    119  C         27.2700   97.8050   72.1380 C.2   243  ASN243      0.2292
    120  O         26.8820   97.0930   71.2150 O.2   243  ASN243     -0.2864
    121  CB        26.7040   97.3060   74.4910 C.3   243  ASN243      0.1181
    122  CG        26.5520   95.8090   74.2170 C.2   243  ASN243      0.2629
    123  OD1       25.4350   95.2880   74.1750 O.2   243  ASN243     -0.2716
    124  ND2       27.6730   95.1170   74.0220 N.am  243  ASN243     -0.0877
    125  N         30.3960   95.7420   71.1830 N.3   245  VAL245     -0.1245
    126  CA        31.1210   94.6020   71.7470 C.3   245  VAL245      0.1561
    127  C         32.6250   94.8740   71.7750 C.2   245  VAL245      0.2260
    128  O         33.1560   95.5600   70.8980 O.2   245  VAL245     -0.2867
    129  CB        30.8250   93.2890   70.9710 C.3   245  VAL245      0.0252
    130  CG1       29.3380   92.9940   70.9960 C.3   245  VAL245      0.0019
    131  CG2       31.3190   93.3850   69.5420 C.3   245  VAL245      0.0019
    132  N         30.6620   93.8490   79.0340 N.3   255  ALA255     -0.1245
    133  CA        29.2080   93.8110   78.8900 C.3   255  ALA255      0.1562
    134  C         28.4580   93.3430   80.1340 C.2   255  ALA255      0.2260
    135  O         28.9610   92.5230   80.9060 O.2   255  ALA255     -0.2867
    136  CB        28.8240   92.9510   77.6890 C.3   255  ALA255      0.0290
    137  N         24.0060   92.9910   81.6340 N.3   257  HIS257     -0.1241
    138  CA        22.5780   93.0930   81.3430 C.3   257  HIS257      0.1621
    139  C         21.9800   94.4500   81.7180 C.2   257  HIS257      0.2264
    140  O         20.9940   94.8850   81.1130 O.2   257  HIS257     -0.2867
    141  CB        21.8190   91.9620   82.0490 C.3   257  HIS257      0.0745
    142  CG        20.3920   91.8100   81.6090 C.ar  257  HIS257      0.0817
    143  ND1       20.0100   91.8340   80.2840 N.ar  257  HIS257     -0.2268
    144  CD2       19.2560   91.6140   82.3220 C.ar  257  HIS257      0.1154
    145  CE1       18.7020   91.6580   80.1990 C.ar  257  HIS257      0.1986
    146  NE2       18.2210   91.5220   81.4220 N.ar  257  HIS257     -0.2212
    147  N         22.1050   96.9770   78.9770 N.3   260  VAL260     -0.1245
    148  CA        21.1030   96.5940   77.9910 C.3   260  VAL260      0.1561
    149  C         19.7270   97.1730   78.3170 C.2   260  VAL260      0.2260
    150  O         19.0600   97.7540   77.4470 O.2   260  VAL260     -0.2867
    151  CB        21.0200   95.0530   77.8720 C.3   260  VAL260      0.0252
    152  CG1       19.8430   94.6370   77.0040 C.3   260  VAL260      0.0019
    153  CG2       22.3180   94.5150   77.2910 C.3   260  VAL260      0.0019
@<TRIPOS>BOND
     1    46    47    1
     2    49    48    2
     3    47    48    1
     4    47    50    1
     5    50    51    1
     6    51    53   ar
     7    51    52   ar
     8    53    55   ar
     9    52    54   ar
    10    55    56   ar
    11    54    56   ar
    12    85    86    1
    13    56    57    1
    14    36    34   am
    15    86    89    1
    16    86    87    1
    17   107   106    2
    18    45    44    2
    19    89    91    1
    20    89    90    1
    21    35    34    2
    22    34    33    1
    23    87    92   am
    24    87    88    2
    25   106   105    1
    26    92    93    1
    27    44    43    1
    28    29    30    1
    29   131   129    1
    30    33    30    1
    31    95    94    2
    32    32    31    2
    33    93    94    1
    34    30    31    1
    35   105   104    1
    36   105   108    1
    37    42    43    1
    38    94    96   am
    39   104    98   am
    40    31    37   am
    41   128   127    2
    42   109   108    1
    43   129   130    1
    44   129   126    1
    45   125   126    1
    46   120   119    2
    47    96    97    1
    48    39    40    2
    49    39    38    1
    50    37    38    1
    51   126   127    1
    52    98    97    1
    53    98    99    2
    54   110   111    1
    55    81    82    1
    56    81    80    1
    57    97   100    1
    58    38    41    1
    59   119   118    1
    60    82    84   ar
    61    82    83   ar
    62    80    77    1
    63   117   118    1
    64   117   112   am
    65   111   112    1
    66   111   114    1
    67   118   121    1
    68   100   101    1
    69   112   113    2
    70   101   102    1
    71   115   114    1
    72   116   114    1
    73   124   122   am
    74    77    78    1
    75    77    76    1
    76   123   122    2
    77   122   121    1
    78    78    79    2
    79    76    67   am
    80    14    16   ar
    81    14    12   ar
    82     1     2    1
    83     8     9    1
    84     8    11    1
    85     8     7    1
    86     4     3    2
    87    16    15   ar
    88   102   103    1
    89     9    10    2
    90    12    11    1
    91    12    13   ar
    92    67    68    2
    93    67    66    1
    94     3     2    1
    95     2     5    1
    96    15    13   ar
    97    17    18    1
    98    71    73   ar
    99    71    70   ar
   100     5     6    1
   101    24    26   ar
   102    24    22   ar
   103    26    27   ar
   104    66    69    1
   105    66    65    1
   106    73    75   ar
   107   152   151    1
   108   153   151    1
   109    69    70    1
   110   150   149    2
   111   136   133    1
   112    70    72   ar
   113    18    21    1
   114    18    19    1
   115    21    22    1
   116   151   148    1
   117    22    23   ar
   118    27    28    1
   119    27    25   ar
   120   148   149    1
   121   148   147    1
   122    58    59    1
   123    58    64    1
   124    75    74   ar
   125    59    60    1
   126    59    62    1
   127    60    61    2
   128   133   132    1
   129   133   134    1
   130    72    74   ar
   131    23    25   ar
   132    19    20    2
   133    64    63    1
   134    62    63    1
   135   134   135    2
   136   145   143   ar
   137   145   146   ar
   138   143   142   ar
   139   140   139    2
   140   138   137    1
   141   138   139    1
   142   138   141    1
   143   146   144   ar
   144   142   141    1
   145   142   144   ar
