@<TRIPOS>MOLECULE
tmp/1a9tA00.pdb
 120 115 0 0 0
SMALL
GASTEIGER

@<TRIPOS>ATOM
      1  N         14.5150   92.4890   75.4140 N.3    33  SER33      -0.1217
      2  CA        15.0560   93.1010   76.6250 C.3    33  SER33       0.1889
      3  C         14.9790   94.6180   76.5980 C.2    33  SER33       0.2288
      4  O         15.4440   95.2570   75.6450 O.2    33  SER33      -0.2866
      5  CB        16.5090   92.6720   76.8380 C.3    33  SER33       0.2089
      6  OG        16.6020   91.2970   77.1710 O.3    33  SER33      -0.2183
      7  N         11.8540   91.1130   81.1640 N.3    64  HIS64      -0.1241
      8  CA        10.8100   90.3730   80.4720 C.3    64  HIS64       0.1621
      9  C          9.6910   90.1100   81.4770 C.2    64  HIS64       0.2264
     10  O          9.7810   89.2090   82.3020 O.2    64  HIS64      -0.2867
     11  CB        11.3630   89.0580   79.9100 C.3    64  HIS64       0.0745
     12  CG        12.4150   89.2460   78.8590 C.ar   64  HIS64       0.0817
     13  ND1       13.7190   89.5750   79.1600 N.ar   64  HIS64      -0.2268
     14  CD2       12.3490   89.1830   77.5090 C.ar   64  HIS64       0.1154
     15  CE1       14.4090   89.7100   78.0410 C.ar   64  HIS64       0.1986
     16  NE2       13.5990   89.4790   77.0250 N.ar   64  HIS64      -0.2212
     17  N         10.0230   87.5880   76.2440 N.3    84  ARG84      -0.1245
     18  CA        10.0640   86.3720   75.4470 C.3    84  ARG84       0.1563
     19  C         10.8380   85.2780   76.1610 C.2    84  ARG84       0.2260
     20  O         11.2420   85.4510   77.3110 O.2    84  ARG84      -0.2867
     21  CB        10.6900   86.6530   74.0750 C.3    84  ARG84       0.0307
     22  CG        12.1030   87.2040   74.1280 C.3    84  ARG84       0.0489
     23  CD        12.9730   86.6150   73.0350 C.3    84  ARG84       0.2205
     24  NE        12.5220   86.9610   71.6880 N.pl3  84  ARG84      -0.0865
     25  CZ        12.7590   88.1240   71.0910 C.cat  84  ARG84       0.5346
     26  NH1       13.4360   89.0820   71.7210 N.pl3  84  ARG84       0.1354
     27  NH2       12.3640   88.3100   69.8340 N.pl3  84  ARG84       0.1354
     28  N         14.0800   82.2770   75.9310 N.3    86  HIS86      -0.1241
     29  CA        15.3900   82.0650   75.3260 C.3    86  HIS86       0.1621
     30  C         15.8320   80.6430   75.6450 C.2    86  HIS86       0.2264
     31  O         15.4260   80.0790   76.6640 O.2    86  HIS86      -0.2867
     32  CB        16.4130   83.0370   75.9130 C.3    86  HIS86       0.0745
     33  CG        15.9630   84.4650   75.9320 C.ar   86  HIS86       0.0817
     34  ND1       15.0830   84.9610   76.8720 N.ar   86  HIS86      -0.2268
     35  CD2       16.3130   85.5160   75.1550 C.ar   86  HIS86       0.1154
     36  CE1       14.9120   86.2550   76.6760 C.ar   86  HIS86       0.1986
     37  NE2       15.6490   86.6160   75.6400 N.ar   86  HIS86      -0.2212
     38  N         18.7830   79.7400   76.6200 N.3    88  TYR88      -0.1241
     39  CA        19.6670   79.7180   77.7920 C.3    88  TYR88       0.1605
     40  C         18.9340   79.5830   79.1330 C.2    88  TYR88       0.2264
     41  O         19.5650   79.3760   80.1630 O.2    88  TYR88      -0.2867
     42  CB        20.6120   80.9340   77.8200 C.3    88  TYR88       0.0534
     43  CG        19.9430   82.2830   78.0070 C.ar   88  TYR88      -0.0201
     44  CD1       19.3360   82.6290   79.2200 C.ar   88  TYR88      -0.0009
     45  CD2       19.9000   83.2030   76.9630 C.ar   88  TYR88      -0.0009
     46  CE1       18.6990   83.8500   79.3830 C.ar   88  TYR88       0.0417
     47  CE2       19.2680   84.4220   77.1130 C.ar   88  TYR88       0.0417
     48  CZ        18.6670   84.7400   78.3190 C.ar   88  TYR88       0.1957
     49  OH        17.9930   85.9280   78.4340 O.3    88  TYR88      -0.2866
     50  N         14.6050   92.9900   69.4390 N.3   115  ASN115     -0.1225
     51  CA        15.5590   92.4800   70.4060 C.3   115  ASN115      0.1785
     52  C         16.6160   93.5260   70.6800 C.2   115  ASN115      0.2597
     53  O         16.6710   94.5550   70.0130 O.2   115  ASN115     -0.2718
     54  CB        16.2070   91.1800   69.9060 C.3   115  ASN115      0.1169
     55  CG        16.9980   91.3660   68.6160 C.2   115  ASN115      0.2627
     56  OD1       17.9190   92.1750   68.5520 O.2   115  ASN115     -0.2716
     57  ND2       16.6480   90.6010   67.5880 N.am  115  ASN115     -0.0877
     58  N         17.3950   93.2860   71.7200 N.am  116  ALA116     -0.1979
     59  CA        18.4910   94.1530   72.1060 C.3   116  ALA116      0.1597
     60  C         19.6760   93.3320   71.6110 C.2   116  ALA116      0.2287
     61  O         19.7030   92.1180   71.8230 O.2   116  ALA116     -0.2864
     62  CB        18.5360   94.2870   73.6270 C.3   116  ALA116      0.0319
     63  N         21.8170   89.6870   61.5680 N.3   192  TYR192     -0.1241
     64  CA        21.7990   89.3790   62.9840 C.3   192  TYR192      0.1605
     65  C         22.3150   87.9480   63.1610 C.2   192  TYR192      0.2264
     66  O         21.9310   87.0510   62.4080 O.2   192  TYR192     -0.2867
     67  CB        20.3610   89.5040   63.4970 C.3   192  TYR192      0.0534
     68  CG        20.1430   89.0780   64.9240 C.ar  192  TYR192     -0.0201
     69  CD1       19.8140   87.7550   65.2350 C.ar  192  TYR192     -0.0009
     70  CD2       20.2270   90.0000   65.9640 C.ar  192  TYR192     -0.0009
     71  CE1       19.5710   87.3690   66.5420 C.ar  192  TYR192      0.0417
     72  CE2       19.9850   89.6190   67.2790 C.ar  192  TYR192      0.0417
     73  CZ        19.6540   88.3080   67.5560 C.ar  192  TYR192      0.1957
     74  OH        19.3770   87.9380   68.8420 O.3   192  TYR192     -0.2866
     75  N         28.4660   86.4850   77.9440 N.3   200  PHE200     -0.1241
     76  CA        28.7820   87.4100   76.8770 C.3   200  PHE200      0.1605
     77  C         30.0570   86.9090   76.1930 C.2   200  PHE200      0.2264
     78  O         30.8120   86.1320   76.7670 O.2   200  PHE200     -0.2867
     79  CB        28.9090   88.8380   77.4040 C.3   200  PHE200      0.0534
     80  CG        27.5830   89.4830   77.7270 C.ar  200  PHE200     -0.0203
     81  CD1       26.6220   89.6550   76.7390 C.ar  200  PHE200     -0.0042
     82  CD2       27.3030   89.9310   79.0080 C.ar  200  PHE200     -0.0042
     83  CE1       25.4020   90.2650   77.0210 C.ar  200  PHE200     -0.0003
     84  CE2       26.0860   90.5430   79.3020 C.ar  200  PHE200     -0.0003
     85  CZ        25.1330   90.7120   78.3060 C.ar  200  PHE200     -0.0000
     86  N         23.1240   88.3940   69.1880 N.3   218  GLY218     -0.1210
     87  CA        22.0970   88.2790   70.2110 C.3   218  GLY218      0.1956
     88  C         21.8130   86.8250   70.5400 C.2   218  GLY218      0.2612
     89  O         22.3600   85.9300   69.8880 O.2   218  GLY218     -0.2717
     90  N         20.9200   86.5860   71.5000 N.am  219  MET219     -0.1965
     91  CA        20.5900   85.2300   71.9520 C.3   219  MET219      0.1736
     92  C         19.1200   84.8270   71.7590 C.2   219  MET219      0.2617
     93  O         18.5620   84.0670   72.5670 O.2   219  MET219     -0.2715
     94  CB        20.9490   85.0910   73.4390 C.3   219  MET219      0.0427
     95  CG        22.3570   85.5370   73.7990 C.3   219  MET219      0.0599
     96  SD        22.6080   85.7390   75.5860 S.3   219  MET219     -0.1393
     97  CE        24.2940   86.3530   75.6470 C.3   219  MET219      0.0692
     98  N         18.4850   85.3080   70.6970 N.am  220  SER220     -0.1950
     99  CA        17.0840   84.9750   70.4620 C.3   220  SER220      0.1924
    100  C         16.6720   85.2890   69.0290 C.2   220  SER220      0.2314
    101  O         17.5000   85.2840   68.1210 O.2   220  SER220     -0.2863
    102  CB        16.2090   85.8000   71.3960 C.3   220  SER220      0.2116
    103  OG        16.1900   87.1500   70.9580 O.3   220  SER220     -0.2180
    104  N         24.1080   93.0900   81.6480 N.3   257  HIS257     -0.1241
    105  CA        22.6660   93.1480   81.4160 C.3   257  HIS257      0.1621
    106  C         21.9720   94.4680   81.7510 C.2   257  HIS257      0.2264
    107  O         21.0480   94.8710   81.0430 O.2   257  HIS257     -0.2867
    108  CB        21.9730   91.9980   82.1590 C.3   257  HIS257      0.0745
    109  CG        20.5480   91.7740   81.7500 C.ar  257  HIS257      0.0817
    110  ND1       20.1550   91.6870   80.4310 N.ar  257  HIS257     -0.2268
    111  CD2       19.4250   91.5970   82.4870 C.ar  257  HIS257      0.1154
    112  CE1       18.8530   91.4630   80.3720 C.ar  257  HIS257      0.1986
    113  NE2       18.3870   91.4050   81.6070 N.ar  257  HIS257     -0.2212
    114  N         22.2150   97.0950   79.0030 N.3   260  VAL260     -0.1245
    115  CA        21.3120   96.8850   77.8740 C.3   260  VAL260      0.1561
    116  C         19.9000   97.3470   78.2340 C.2   260  VAL260      0.2260
    117  O         19.2220   97.9770   77.4160 O.2   260  VAL260     -0.2867
    118  CB        21.3020   95.4100   77.3550 C.3   260  VAL260      0.0252
    119  CG1       22.6860   94.7890   77.4770 C.3   260  VAL260      0.0019
    120  CG2       20.2290   94.5860   78.0320 C.3   260  VAL260      0.0019
@<TRIPOS>BOND
     1    63    64    1
     2    66    65    2
     3    64    65    1
     4    64    67    1
     5    67    68    1
     6    68    69   ar
     7    68    70   ar
     8    69    71   ar
     9    70    72   ar
    10    71    73   ar
    11    72    73   ar
    12    73    74    1
    13    57    55   am
    14   101   100    2
    15    56    55    2
    16    55    54    1
    17   100    99    1
    18    86    87    1
    19    50    51    1
    20    27    25    1
    21    89    88    2
    22    54    51    1
    23    53    52    2
    24    87    88    1
    25    51    52    1
    26    99    98    1
    27    99   102    1
    28    88    90   am
    29    52    58   am
    30    98    92   am
    31   103   102    1
    32    25    24    2
    33    25    26    1
    34    90    91    1
    35    60    61    2
    36    60    59    1
    37    24    23    1
    38    58    59    1
    39    92    91    1
    40    92    93    2
    41    91    94    1
    42    59    62    1
    43    23    22    1
    44    94    95    1
    45    95    96    1
    46    21    22    1
    47    21    18    1
    48    35    37   ar
    49    35    33   ar
    50    29    30    1
    51    29    32    1
    52    29    28    1
    53     1     2    1
    54    18    19    1
    55    18    17    1
    56    96    97    1
    57    37    36   ar
    58    30    31    2
    59     4     3    2
    60    32    33    1
    61    33    34   ar
    62    19    20    2
    63    77    78    2
    64    77    76    1
    65     3     2    1
    66    38    39    1
    67     2     5    1
    68    36    34   ar
    69    81    83   ar
    70    81    80   ar
    71     5     6    1
    72    76    79    1
    73    76    75    1
    74    45    47   ar
    75    45    43   ar
    76    83    85   ar
    77    16    14   ar
    78    16    15   ar
    79    47    48   ar
    80   118   119    1
    81   118   115    1
    82   118   120    1
    83    79    80    1
    84   117   116    2
    85    14    12   ar
    86    80    82   ar
    87    39    42    1
    88    39    40    1
    89    42    43    1
    90   115   116    1
    91   115   114    1
    92    43    44   ar
    93    15    13   ar
    94    85    84   ar
    95    48    49    1
    96    48    46   ar
    97    12    13   ar
    98    12    11    1
    99    82    84   ar
   100    40    41    2
   101    44    46   ar
   102    11     8    1
   103   112   110   ar
   104   112   113   ar
   105   110   109   ar
   106     8     7    1
   107     8     9    1
   108   107   106    2
   109   105   104    1
   110   105   106    1
   111   105   108    1
   112     9    10    2
   113   113   111   ar
   114   109   108    1
   115   109   111   ar
