@<TRIPOS>MOLECULE
tmp/1a9uA00.pdb
 152 143 0 0 0
SMALL
GASTEIGER

@<TRIPOS>ATOM
      1  N         -0.7540   10.9680   19.4110 N.3    27  VAL27      -0.1245
      2  CA        -1.7310   10.8980   20.4890 C.3    27  VAL27       0.1561
      3  C         -1.9600   12.2880   21.1190 C.2    27  VAL27       0.2260
      4  O         -2.7210   12.4370   22.0750 O.2    27  VAL27      -0.2867
      5  CB        -1.2680    9.8310   21.5370 C.3    27  VAL27       0.0252
      6  CG1       -0.9620   10.4640   22.8740 C.3    27  VAL27       0.0019
      7  CG2       -2.3170    8.7470   21.6680 C.3    27  VAL27       0.0019
      8  N          3.8770   22.9820   23.2080 N.3    32  TYR32      -0.1241
      9  CA         4.9320   22.2620   23.9350 C.3    32  TYR32       0.1605
     10  C          5.7190   21.2570   23.0840 C.2    32  TYR32       0.2264
     11  O          6.8980   21.0050   23.3460 O.2    32  TYR32      -0.2867
     12  CB         4.3170   21.5130   25.1190 C.3    32  TYR32       0.0534
     13  CG         3.3270   20.4500   24.6950 C.ar   32  TYR32      -0.0201
     14  CD1        1.9970   20.7760   24.4110 C.ar   32  TYR32      -0.0009
     15  CD2        3.7140   19.1110   24.5850 C.ar   32  TYR32      -0.0009
     16  CE1        1.0740   19.7880   24.0310 C.ar   32  TYR32       0.0417
     17  CE2        2.7990   18.1180   24.2060 C.ar   32  TYR32       0.0417
     18  CZ         1.4850   18.4630   23.9330 C.ar   32  TYR32       0.1957
     19  OH         0.5830   17.4890   23.5720 O.3    32  TYR32      -0.2866
     20  N          3.0330   14.3750   21.3740 N.3    35  VAL35      -0.1245
     21  CA         3.1140   13.1390   22.1490 C.3    35  VAL35       0.1561
     22  C          2.6830   11.9560   21.2800 C.2    35  VAL35       0.2260
     23  O          1.7630   12.0550   20.4610 O.2    35  VAL35      -0.2867
     24  CB         2.2340   13.1750   23.4270 C.3    35  VAL35       0.0252
     25  CG1        2.1760   11.7800   24.0630 C.3    35  VAL35       0.0019
     26  CG2        2.8070   14.1740   24.4170 C.3    35  VAL35       0.0019
     27  N          4.5000    6.7100   26.4090 N.3    48  ALA48      -0.1245
     28  CA         4.1470    7.9540   25.7720 C.3    48  ALA48       0.1562
     29  C          5.5170    8.5760   25.4930 C.2    48  ALA48       0.2260
     30  O          6.3660    8.6400   26.3900 O.2    48  ALA48      -0.2867
     31  CB         3.3430    8.8270   26.7250 C.3    48  ALA48       0.0290
     32  N          7.1860   11.9870   24.3200 N.3    50  LYS50      -0.1245
     33  CA         6.9230   13.3820   24.0460 C.3    50  LYS50       0.1561
     34  C          8.1680   14.0210   23.4500 C.2    50  LYS50       0.2260
     35  O          9.2750   13.8700   23.9750 O.2    50  LYS50      -0.2867
     36  CB         6.5130   14.1230   25.3280 C.3    50  LYS50       0.0271
     37  CG         6.3670   15.6610   25.1550 C.3    50  LYS50       0.0035
     38  CD         5.8380   16.3560   26.4140 C.3    50  LYS50       0.0206
     39  CE         6.7090   16.0220   27.6320 C.3    50  LYS50       0.1093
     40  NZ         6.1270   16.4600   28.9500 N.3    50  LYS50      -0.1314
     41  N         12.0590   20.5270   33.9580 N.3    68  GLU68      -0.1245
     42  CA        11.2290   19.3460   33.7710 C.3    68  GLU68       0.1567
     43  C         12.0340   18.0590   33.8660 C.2    68  GLU68       0.2260
     44  O         11.6590   17.1360   34.5950 O.2    68  GLU68      -0.2867
     45  CB        10.4830   19.3910   32.4370 C.3    68  GLU68       0.0388
     46  CG         9.2410   18.4940   32.4580 C.3    68  GLU68       0.1160
     47  CD         8.5680   18.3060   31.0930 C.2    68  GLU68       0.3649
     48  OE1        8.9460   19.0100   30.1190 O.co2  68  GLU68      -0.2457
     49  OE2        7.6530   17.4450   30.9990 O.co2  68  GLU68      -0.2457
     50  N         11.4620   15.1730   36.6470 N.3    72  LEU72      -0.1245
     51  CA        11.1120   13.8300   36.1870 C.3    72  LEU72       0.1561
     52  C         12.2380   12.8190   36.4740 C.2    72  LEU72       0.2260
     53  O         11.9790   11.6610   36.8170 O.2    72  LEU72      -0.2867
     54  CB        10.7860   13.8650   34.6800 C.3    72  LEU72       0.0270
     55  CG         9.3190   13.7970   34.1990 C.3    72  LEU72       0.0019
     56  CD1        8.3830   14.3930   35.2350 C.3    72  LEU72       0.0001
     57  CD2        9.1840   14.5200   32.8680 C.3    72  LEU72       0.0001
     58  N          4.4680   10.3790   38.6760 N.3    81  ILE81      -0.1231
     59  CA         4.9470   10.1090   37.3210 C.3    81  ILE81       0.1692
     60  C          6.4660    9.9860   37.3030 C.2    81  ILE81       0.2593
     61  O          7.1670   10.7480   37.9600 O.2    81  ILE81      -0.2718
     62  CB         4.5060   11.2130   36.3130 C.3    81  ILE81       0.0266
     63  CG1        4.9980   10.8490   34.9110 C.3    81  ILE81       0.0019
     64  CG2        5.0580   12.5520   36.7180 C.3    81  ILE81       0.0020
     65  CD1        4.4820   11.7330   33.7980 C.3    81  ILE81       0.0001
     66  N          6.9660    9.0090   36.5550 N.am   82  GLY82      -0.1942
     67  CA         8.3990    8.8050   36.4670 C.3    82  GLY82       0.2014
     68  C          8.9230    8.8150   35.0450 C.2    82  GLY82       0.2638
     69  O          8.1630    8.7530   34.0760 O.2    82  GLY82      -0.2714
     70  N         10.2420    8.8920   34.9290 N.am   83  LEU83      -0.1977
     71  CA        10.9130    8.9130   33.6390 C.3    83  LEU83       0.1596
     72  C         11.4210    7.5170   33.3070 C.2    83  LEU83       0.2287
     73  O         12.1880    6.9290   34.0660 O.2    83  LEU83      -0.2864
     74  CB        12.1040    9.8580   33.6860 C.3    83  LEU83       0.0297
     75  CG        12.2940   10.9560   32.6430 C.3    83  LEU83       0.0022
     76  CD1       13.7660   11.0420   32.3630 C.3    83  LEU83       0.0001
     77  CD2       11.5070   10.6980   31.3820 C.3    83  LEU83       0.0001
     78  N         11.0830   12.7380   25.8210 N.3   101  LEU101     -0.1231
     79  CA        10.8290   12.2010   27.1450 C.3   101  LEU101      0.1693
     80  C          9.9320   10.9890   26.9500 C.2   101  LEU101      0.2592
     81  O          8.9950   11.0320   26.1510 O.2   101  LEU101     -0.2718
     82  CB        10.1320   13.2430   28.0250 C.3   101  LEU101      0.0284
     83  CG        10.8320   14.5960   28.1390 C.3   101  LEU101      0.0019
     84  CD1        9.8580   15.6130   28.6700 C.3   101  LEU101      0.0001
     85  CD2       12.0370   14.4810   29.0450 C.3   101  LEU101      0.0001
     86  N         10.2320    9.9080   27.6700 N.am  102  VAL102     -0.1966
     87  CA         9.4710    8.6620   27.5720 C.3   102  VAL102      0.1727
     88  C          8.9300    8.2650   28.9460 C.2   102  VAL102      0.2617
     89  O          9.6920    8.1890   29.9130 O.2   102  VAL102     -0.2715
     90  CB        10.3730    7.5020   27.0280 C.3   102  VAL102      0.0290
     91  CG1        9.5910    6.2010   27.0100 C.3   102  VAL102      0.0023
     92  CG2       10.8960    7.8440   25.6360 C.3   102  VAL102      0.0023
     93  N          7.6230    8.0400   29.0450 N.am  103  THR103     -0.1937
     94  CA         7.0340    7.6280   30.3190 C.3   103  THR103      0.2028
     95  C          5.9230    6.6370   30.0480 C.2   103  THR103      0.2642
     96  O          5.5280    6.4540   28.9020 O.2   103  THR103     -0.2714
     97  CB         6.4620    8.8400   31.1470 C.3   103  THR103      0.1808
     98  OG1        6.2870    8.4390   32.5140 O.3   103  THR103     -0.2208
     99  CG2        5.1220    9.3090   30.5970 C.3   103  THR103      0.0379
    100  N          5.4350    5.9840   31.0990 N.am  104  HIS104     -0.1959
    101  CA         4.3480    5.0210   30.9540 C.3   104  HIS104      0.1787
    102  C          3.1730    5.7450   30.3290 C.2   104  HIS104      0.2620
    103  O          2.8500    6.8620   30.7140 O.2   104  HIS104     -0.2715
    104  CB         3.9420    4.4750   32.3200 C.3   104  HIS104      0.0785
    105  CG         5.0590    3.8000   33.0550 C.ar  104  HIS104      0.0821
    106  ND1        5.7020    4.3750   34.1350 N.ar  104  HIS104     -0.2267
    107  CD2        5.6660    2.6070   32.8470 C.ar  104  HIS104      0.1154
    108  CE1        6.6570    3.5650   34.5580 C.ar  104  HIS104      0.1986
    109  NE2        6.6550    2.4860   33.7930 N.ar  104  HIS104     -0.2212
    110  N          2.5400    5.1130   29.3560 N.am  105  LEU105     -0.1963
    111  CA         1.3970    5.7150   28.6920 C.3   105  LEU105      0.1728
    112  C          0.2290    5.7420   29.6760 C.2   105  LEU105      0.2616
    113  O         -0.2500    4.6970   30.1090 O.2   105  LEU105     -0.2715
    114  CB         1.0370    4.8870   27.4610 C.3   105  LEU105      0.0311
    115  CG        -0.0940    5.3370   26.5470 C.3   105  LEU105      0.0022
    116  CD1        0.2600    6.6620   25.8750 C.3   105  LEU105      0.0001
    117  CD2       -0.3460    4.2450   25.5270 C.3   105  LEU105      0.0001
    118  N         -0.2050    6.9460   30.0390 N.am  106  MET106     -0.1977
    119  CA        -1.3210    7.1380   30.9710 C.3   106  MET106      0.1605
    120  C         -2.6150    7.1580   30.1640 C.2   106  MET106      0.2287
    121  O         -2.7460    7.9280   29.2080 O.2   106  MET106     -0.2864
    122  CB        -1.1790    8.4640   31.7370 C.3   106  MET106      0.0413
    123  CG         0.0520    8.5650   32.6730 C.3   106  MET106      0.0598
    124  SD         0.3030    7.1860   33.8440 S.3   106  MET106     -0.1393
    125  CE         2.0880    7.3510   34.1500 C.3   106  MET106      0.0692
    126  N          0.5090   13.5070   38.0710 N.3   164  LEU164     -0.1231
    127  CA         1.1370   13.9990   36.8400 C.3   164  LEU164      0.1693
    128  C          1.3560   15.4900   36.7400 C.2   164  LEU164      0.2592
    129  O          1.2330   16.2370   37.7090 O.2   164  LEU164     -0.2718
    130  CB         0.2950   13.6340   35.6190 C.3   164  LEU164      0.0284
    131  CG         0.1250   12.2190   35.1020 C.3   164  LEU164      0.0019
    132  CD1        0.8660   11.2140   35.9630 C.3   164  LEU164      0.0001
    133  CD2       -1.3670   11.9410   35.0700 C.3   164  LEU164      0.0001
    134  N          1.6500   15.8900   35.5030 N.am  165  ASP165     -0.1974
    135  CA         1.8830   17.2720   35.1020 C.3   165  ASP165      0.1709
    136  C          2.0680   18.2070   36.2740 C.2   165  ASP165      0.2293
    137  O          1.1170   18.8220   36.7570 O.2   165  ASP165     -0.2864
    138  CB         0.7280   17.7730   34.2050 C.3   165  ASP165      0.1436
    139  CG         0.2410   16.7070   33.1910 C.2   165  ASP165      0.3671
    140  OD1        1.0680   16.1410   32.4260 O.co2 165  ASP165     -0.2456
    141  OD2       -0.9820   16.4420   33.1540 O.co2 165  ASP165     -0.2456
    142  N          5.6100   26.0870   34.6450 N.3   170  ARG170     -0.1245
    143  CA         4.9240   27.2150   34.0130 C.3   170  ARG170      0.1563
    144  C          4.3030   28.2240   34.9810 C.2   170  ARG170      0.2260
    145  O          3.3740   27.9010   35.7280 O.2   170  ARG170     -0.2867
    146  CB         3.8330   26.7030   33.0600 C.3   170  ARG170      0.0307
    147  CG         4.1990   25.4340   32.2920 C.3   170  ARG170      0.0489
    148  CD         3.0240   24.9390   31.4560 C.3   170  ARG170      0.2205
    149  NE         2.1300   24.0760   32.2250 N.pl3 170  ARG170     -0.0865
    150  CZ         0.9220   23.6930   31.8220 C.cat 170  ARG170      0.5346
    151  NH1        0.4480   24.0960   30.6500 N.pl3 170  ARG170      0.1354
    152  NH2        0.1850   22.9000   32.5900 N.pl3 170  ARG170      0.1354
@<TRIPOS>BOND
     1     1     2    1
     2    23    22    2
     3     2     3    1
     4     2     5    1
     5     3     4    2
     6    22    21    1
     7    20    21    1
     8     5     7    1
     9     5     6    1
    10    21    24    1
    11    10    11    2
    12    10     9    1
    13     8     9    1
    14    24    25    1
    15    24    26    1
    16    34    35    2
    17    34    33    1
    18    19    18    1
    19    18    16   ar
    20    18    17   ar
    21     9    12    1
    22    16    14   ar
    23    33    32    1
    24    33    36    1
    25    17    15   ar
    26    14    13   ar
    27    15    13   ar
    28    13    12    1
    29    37    36    1
    30    37    38    1
    31    29    28    1
    32    29    30    2
    33   117   115    1
    34    92    90    1
    35    28    27    1
    36    28    31    1
    37    78    79    1
    38   116   115    1
    39    81    80    2
    40    38    39    1
    41   115   114    1
    42    80    79    1
    43    80    86   am
    44    91    90    1
    45    90    87    1
    46    79    82    1
    47   114   111    1
    48    87    86    1
    49    87    88    1
    50    39    40    1
    51    82    83    1
    52    83    84    1
    53    83    85    1
    54   111   110    1
    55   111   112    1
    56    96    95    2
    57    88    93   am
    58    88    89    2
    59    93    94    1
    60   121   120    2
    61   110   102   am
    62   112   118   am
    63   112   113    2
    64   118   119    1
    65    95    94    1
    66    95   100   am
    67    48    47   ar
    68   120   119    1
    69    94    97    1
    70   102   103    2
    71   102   101    1
    72    99    97    1
    73   151   150    1
    74   101   100    1
    75   101   104    1
    76   119   122    1
    77    49    47   ar
    78    47    46    1
    79    97    98    1
    80    77    75    1
    81   148   149    1
    82   148   147    1
    83   122   123    1
    84   150   149    2
    85   150   152    1
    86   147   146    1
    87   104   105    1
    88    76    75    1
    89   140   139   ar
    90    45    46    1
    91    45    42    1
    92    75    74    1
    93   123   124    1
    94   107   105   ar
    95   107   109   ar
    96    57    55    1
    97   105   106   ar
    98   146   143    1
    99   141   139   ar
   100   139   138    1
   101    72    71    1
   102    72    73    2
   103    71    74    1
   104    71    70    1
   105    42    43    1
   106    42    41    1
   107   109   108   ar
   108    65    63    1
   109   124   125    1
   110    43    44    2
   111   143   142    1
   112   143   144    1
   113    69    68    2
   114   106   108   ar
   115    55    54    1
   116    55    56    1
   117   138   135    1
   118    54    51    1
   119    63    62    1
   120    70    68   am
   121   144   145    2
   122    68    67    1
   123   133   131    1
   124   131   130    1
   125   131   132    1
   126   135   134    1
   127   135   136    1
   128   134   128   am
   129   130   127    1
   130    51    52    1
   131    51    50    1
   132   136   137    2
   133    62    64    1
   134    62    59    1
   135    67    66    1
   136    52    53    2
   137    66    60   am
   138   128   127    1
   139   128   129    2
   140   127   126    1
   141    60    59    1
   142    60    61    2
   143    59    58    1
