@<TRIPOS>MOLECULE
tmp/1aa1A01.pdb
 75 72 0 0 0
SMALL
GASTEIGER

@<TRIPOS>ATOM
      1  N        -30.6970   39.1540   37.9810 N.3   273  HIS273     -0.1226
      2  CA       -31.9070   38.3670   37.8090 C.3   273  HIS273      0.1752
      3  C        -32.7010   38.4950   39.1120 C.2   273  HIS273      0.2595
      4  O        -32.1380   38.4060   40.2080 O.2   273  HIS273     -0.2718
      5  CB       -31.5540   36.9040   37.5210 C.3   273  HIS273      0.0759
      6  CG       -32.7030   36.0950   37.0030 C.ar  273  HIS273      0.0818
      7  ND1      -33.7030   35.6060   37.8140 N.ar  273  HIS273     -0.2268
      8  CD2      -33.0210   35.7030   35.7430 C.ar  273  HIS273      0.1154
      9  CE1      -34.5900   34.9530   37.0840 C.ar  273  HIS273      0.1986
     10  NE2      -34.1940   34.9990   35.8230 N.ar  273  HIS273     -0.2212
     11  N        -34.0140   38.6660   38.9990 N.am  274  ARG274     -0.1980
     12  CA       -34.8510   38.8540   40.1770 C.3   274  ARG274      0.1597
     13  C        -35.5610   37.6120   40.6900 C.2   274  ARG274      0.2287
     14  O        -36.6460   37.7190   41.2620 O.2   274  ARG274     -0.2864
     15  CB       -35.8690   39.9760   39.9350 C.3   274  ARG274      0.0334
     16  CG       -36.7710   39.7520   38.7230 C.3   274  ARG274      0.0492
     17  CD       -37.7970   40.8550   38.6100 C.3   274  ARG274      0.2205
     18  NE       -38.8150   40.5710   37.6070 N.pl3 274  ARG274     -0.0865
     19  CZ       -39.9350   41.2740   37.4620 C.cat 274  ARG274      0.5346
     20  NH1      -40.1710   42.3160   38.2510 N.pl3 274  ARG274      0.1354
     21  NH2      -40.8370   40.9140   36.5650 N.pl3 274  ARG274      0.1354
     22  N        -38.5490   37.1210   43.5170 N.3   277  HIS277     -0.1226
     23  CA       -39.2940   38.3680   43.7430 C.3   277  HIS277      0.1752
     24  C        -40.8020   38.1950   43.9930 C.2   277  HIS277      0.2595
     25  O        -41.3550   38.8040   44.9190 O.2   277  HIS277     -0.2718
     26  CB       -39.0670   39.3930   42.6050 C.3   277  HIS277      0.0759
     27  CG       -39.8100   39.0830   41.3320 C.ar  277  HIS277      0.0818
     28  ND1      -40.9580   39.7450   40.9490 N.ar  277  HIS277     -0.2268
     29  CD2      -39.5480   38.1960   40.3450 C.ar  277  HIS277      0.1154
     30  CE1      -41.3700   39.2780   39.7880 C.ar  277  HIS277      0.1986
     31  NE2      -40.5280   38.3420   39.3990 N.ar  277  HIS277     -0.2212
     32  N        -41.4590   37.3300   43.2170 N.am  278  ALA278     -0.1980
     33  CA       -42.9050   37.1400   43.3640 C.3   278  ALA278      0.1597
     34  C        -43.3280   36.5540   44.7060 C.2   278  ALA278      0.2287
     35  O        -44.5200   36.5860   45.0700 O.2   278  ALA278     -0.2864
     36  CB       -43.4550   36.3210   42.2090 C.3   278  ALA278      0.0319
     37  N        -43.2420   40.3140   46.2160 N.3   281  ASP281     -0.1239
     38  CA       -43.9590   41.4080   45.5970 C.3   281  ASP281      0.1674
     39  C        -45.2590   41.1240   44.8670 C.2   281  ASP281      0.2266
     40  O        -45.7580   42.0160   44.1870 O.2   281  ASP281     -0.2867
     41  CB       -42.9970   42.1750   44.6600 C.3   281  ASP281      0.1410
     42  CG       -42.6200   41.3890   43.3930 C.2   281  ASP281      0.3668
     43  OD1      -43.3020   40.4060   43.0270 O.co2 281  ASP281     -0.2456
     44  OD2      -41.6410   41.7750   42.7230 O.co2 281  ASP281     -0.2456
     45  N        -34.0090   42.4840   35.5330 N.3   306  HIS306     -0.1241
     46  CA       -35.2430   41.9960   34.9190 C.3   306  HIS306      0.1621
     47  C        -36.4010   42.8160   35.4630 C.2   306  HIS306      0.2264
     48  O        -36.4750   43.0630   36.6700 O.2   306  HIS306     -0.2867
     49  CB       -35.4490   40.5210   35.2420 C.3   306  HIS306      0.0745
     50  CG       -34.6420   39.6070   34.3820 C.ar  306  HIS306      0.0817
     51  ND1      -35.2190   38.7210   33.5050 N.ar  306  HIS306     -0.2268
     52  CD2      -33.3050   39.4660   34.2300 C.ar  306  HIS306      0.1154
     53  CE1      -34.2760   38.0760   32.8440 C.ar  306  HIS306      0.1986
     54  NE2      -33.1060   38.5110   33.2660 N.ar  306  HIS306     -0.2212
     55  N        -39.9300   42.3320   34.0960 N.3   308  GLY308     -0.1210
     56  CA       -41.2160   41.8380   33.6440 C.3   308  GLY308      0.1956
     57  C        -41.4490   42.0880   32.1670 C.2   308  GLY308      0.2612
     58  O        -40.6640   42.7810   31.5240 O.2   308  GLY308     -0.2717
     59  N        -42.5630   41.6020   31.6330 N.am  309  THR309     -0.1952
     60  CA       -42.8140   41.7690   30.2150 C.3   309  THR309      0.1897
     61  C        -43.8560   42.7790   29.7390 C.2   309  THR309      0.2313
     62  O        -43.7420   43.2800   28.6220 O.2   309  THR309     -0.2863
     63  CB       -43.0750   40.4080   29.5460 C.3   309  THR309      0.1794
     64  OG1      -43.1300   40.5750   28.1250 O.3   309  THR309     -0.2208
     65  CG2      -44.3730   39.8070   30.0280 C.3   309  THR309      0.0378
     66  N        -38.5220   40.1170   29.5720 N.3   353  SER353     -0.1202
     67  CA       -38.3870   38.6980   29.2730 C.3   353  SER353      0.2020
     68  C        -39.6610   37.9530   29.6530 C.2   353  SER353      0.2619
     69  O        -40.4330   38.4310   30.4860 O.2   353  SER353     -0.2717
     70  CB       -37.2150   38.1270   30.0820 C.3   353  SER353      0.2103
     71  OG       -37.0810   36.7230   29.9120 O.3   353  SER353     -0.2182
     72  N        -39.8750   36.7840   29.0540 N.am  354  GLY354     -0.1956
     73  CA       -41.0490   36.0010   29.3800 C.3   354  GLY354      0.1869
     74  C        -42.0130   35.7190   28.2490 C.2   354  GLY354      0.2309
     75  O        -42.8980   36.5280   27.9630 O.2   354  GLY354     -0.2863
@<TRIPOS>BOND
     1    75    74    2
     2    64    63    1
     3    74    73    1
     4    62    61    2
     5    72    73    1
     6    72    68   am
     7    67    66    1
     8    67    68    1
     9    67    70    1
    10    63    65    1
    11    63    60    1
    12    68    69    2
    13    61    60    1
    14    71    70    1
    15    60    59    1
    16    58    57    2
    17    59    57   am
    18    57    56    1
    19    53    54   ar
    20    53    51   ar
    21    54    52   ar
    22    51    50   ar
    23    56    55    1
    24    52    50   ar
    25    50    49    1
    26    46    49    1
    27    46    47    1
    28    46    45    1
    29    47    48    2
    30     8    10   ar
    31     8     6   ar
    32    10     9   ar
    33    21    19    1
    34     6     5    1
    35     6     7   ar
    36     9     7   ar
    37    19    18    2
    38    19    20    1
    39     5     2    1
    40    18    17    1
    41     2     1    1
    42     2     3    1
    43    17    16    1
    44    16    15    1
    45    11     3   am
    46    11    12    1
    47     3     4    2
    48    31    30   ar
    49    31    29   ar
    50    30    28   ar
    51    15    12    1
    52    12    13    1
    53    29    27   ar
    54    13    14    2
    55    28    27   ar
    56    27    26    1
    57    36    33    1
    58    26    23    1
    59    44    42   ar
    60    43    42   ar
    61    32    33    1
    62    32    24   am
    63    33    34    1
    64    42    41    1
    65    22    23    1
    66    23    24    1
    67    24    25    2
    68    40    39    2
    69    41    38    1
    70    34    35    2
    71    39    38    1
    72    38    37    1
