@<TRIPOS>MOLECULE
tmp/1aa1A00.pdb
 106 101 0 0 0
SMALL
GASTEIGER

@<TRIPOS>ATOM
      1  N        -32.1230   33.2930   26.4800 N.3   153  THR153     -0.1218
      2  CA       -31.8110   32.3660   27.5700 C.3   153  THR153      0.1862
      3  C        -31.6360   30.9780   26.9710 C.2   153  THR153      0.2287
      4  O        -32.4700   30.5210   26.1900 O.2   153  THR153     -0.2866
      5  CB       -32.9390   32.2910   28.6320 C.3   153  THR153      0.1770
      6  OG1      -33.2520   33.6040   29.1140 O.3   153  THR153     -0.2211
      7  CG2      -32.4970   31.4320   29.8240 C.3   153  THR153      0.0375
      8  N        -31.8290   27.1110   26.8050 N.3   155  LYS155     -0.1245
      9  CA       -32.6460   26.0440   27.3910 C.3   155  LYS155      0.1561
     10  C        -32.3960   24.7670   26.5980 C.2   155  LYS155      0.2260
     11  O        -31.9410   24.8430   25.4640 O.2   155  LYS155     -0.2867
     12  CB       -34.1490   26.3780   27.4210 C.3   155  LYS155      0.0271
     13  CG       -34.5570   27.6840   26.7960 C.3   155  LYS155      0.0035
     14  CD       -35.8680   28.1610   27.3810 C.3   155  LYS155      0.0206
     15  CE       -35.7300   28.3770   28.8800 C.3   155  LYS155      0.1093
     16  NZ       -37.0050   28.8980   29.4590 N.3   155  LYS155     -0.1314
     17  N        -32.4860   24.5230   30.7250 N.3   157  LYS157     -0.1245
     18  CA       -31.5920   25.0950   31.7280 C.3   157  LYS157      0.1561
     19  C        -30.6810   24.0240   32.3190 C.2   157  LYS157      0.2260
     20  O        -29.4810   24.2530   32.5150 O.2   157  LYS157     -0.2867
     21  CB       -32.3880   25.7980   32.8290 C.3   157  LYS157      0.0271
     22  CG       -33.5480   25.0170   33.3970 C.3   157  LYS157      0.0035
     23  CD       -34.3160   25.8180   34.4570 C.3   157  LYS157      0.0206
     24  CE       -35.1610   26.9170   33.8270 C.3   157  LYS157      0.1093
     25  NZ       -35.8680   27.7230   34.8700 N.3   157  LYS157     -0.1314
     26  N        -29.4210   30.5060   32.7910 N.3   182  ASP182     -0.1225
     27  CA       -30.6550   30.5550   33.5260 C.3   182  ASP182      0.1805
     28  C        -30.2830   30.8600   34.9780 C.2   182  ASP182      0.2597
     29  O        -29.1730   30.5430   35.4140 O.2   182  ASP182     -0.2718
     30  CB       -31.3570   29.2100   33.4480 C.3   182  ASP182      0.1424
     31  CG       -32.7100   29.2410   34.0770 C.2   182  ASP182      0.3668
     32  OD1      -33.6470   29.7010   33.4010 O.co2 182  ASP182     -0.2456
     33  OD2      -32.8360   28.8360   35.2570 O.co2 182  ASP182     -0.2456
     34  N        -31.2130   31.4420   35.7360 N.am  183  GLU183     -0.1979
     35  CA       -30.9390   31.7730   37.1290 C.3   183  GLU183      0.1602
     36  C        -30.5740   30.5470   37.9600 C.2   183  GLU183      0.2287
     37  O        -29.8440   30.6450   38.9460 O.2   183  GLU183     -0.2864
     38  CB       -32.1230   32.5040   37.7760 C.3   183  GLU183      0.0415
     39  CG       -33.3810   31.6610   38.0350 C.3   183  GLU183      0.1163
     40  CD       -34.3170   31.5720   36.8320 C.2   183  GLU183      0.3649
     41  OE1      -33.9520   32.0630   35.7440 O.co2 183  GLU183     -0.2457
     42  OE2      -35.4300   31.0150   36.9770 O.co2 183  GLU183     -0.2457
     43  N        -30.6970   39.1540   37.9810 N.3   273  HIS273     -0.1241
     44  CA       -31.9070   38.3670   37.8090 C.3   273  HIS273      0.1621
     45  C        -32.7010   38.4950   39.1120 C.2   273  HIS273      0.2264
     46  O        -32.1380   38.4060   40.2080 O.2   273  HIS273     -0.2867
     47  CB       -31.5540   36.9040   37.5210 C.3   273  HIS273      0.0745
     48  CG       -32.7030   36.0950   37.0030 C.ar  273  HIS273      0.0817
     49  ND1      -33.7030   35.6060   37.8140 N.ar  273  HIS273     -0.2268
     50  CD2      -33.0210   35.7030   35.7430 C.ar  273  HIS273      0.1154
     51  CE1      -34.5900   34.9530   37.0840 C.ar  273  HIS273      0.1986
     52  NE2      -34.1940   34.9990   35.8230 N.ar  273  HIS273     -0.2212
     53  N        -38.5220   40.1170   29.5720 N.3   353  SER353     -0.1202
     54  CA       -38.3870   38.6980   29.2730 C.3   353  SER353      0.2020
     55  C        -39.6610   37.9530   29.6530 C.2   353  SER353      0.2619
     56  O        -40.4330   38.4310   30.4860 O.2   353  SER353     -0.2717
     57  CB       -37.2150   38.1270   30.0820 C.3   353  SER353      0.2103
     58  OG       -37.0810   36.7230   29.9120 O.3   353  SER353     -0.2182
     59  N        -39.8750   36.7840   29.0540 N.am  354  GLY354     -0.1942
     60  CA       -41.0490   36.0010   29.3800 C.3   354  GLY354      0.2014
     61  C        -42.0130   35.7190   28.2490 C.2   354  GLY354      0.2639
     62  O        -42.8980   36.5280   27.9630 O.2   354  GLY354     -0.2714
     63  N        -41.8310   34.5750   27.5980 N.am  355  GLY355     -0.1939
     64  CA       -42.7090   34.1660   26.5180 C.3   355  GLY355      0.2014
     65  C        -42.9280   35.1130   25.3530 C.2   355  GLY355      0.2638
     66  O        -43.9510   35.0210   24.6670 O.2   355  GLY355     -0.2714
     67  N        -41.9780   36.0010   25.0890 N.am  356  ILE356     -0.1977
     68  CA       -42.1340   36.9310   23.9790 C.3   356  ILE356      0.1596
     69  C        -41.5480   36.3780   22.6710 C.2   356  ILE356      0.2287
     70  O        -40.6650   35.5130   22.6890 O.2   356  ILE356     -0.2864
     71  CB       -41.5610   38.3460   24.3270 C.3   356  ILE356      0.0276
     72  CG1      -40.1020   38.2540   24.7880 C.3   356  ILE356      0.0022
     73  CG2      -42.4210   39.0070   25.4210 C.3   356  ILE356      0.0022
     74  CD1      -39.5450   39.5470   25.3670 C.3   356  ILE356      0.0001
     75  N        -35.2700   39.9240   25.9750 N.3   375  GLN375     -0.1231
     76  CA       -34.7880   38.5470   26.0700 C.3   375  GLN375      0.1698
     77  C        -35.7460   37.5440   25.4180 C.2   375  GLN375      0.2592
     78  O        -36.9030   37.4560   25.8190 O.2   375  GLN375     -0.2718
     79  CB       -34.6090   38.1960   27.5500 C.3   375  GLN375      0.0381
     80  CG       -33.3510   37.4260   27.8880 C.3   375  GLN375      0.0905
     81  CD       -32.1800   38.3330   28.2010 C.2   375  GLN375      0.2608
     82  OE1      -32.2090   39.0700   29.1790 O.2   375  GLN375     -0.2717
     83  NE2      -31.1200   38.2420   27.4080 N.am  375  GLN375     -0.0878
     84  N        -35.2520   36.7680   24.4500 N.am  376  PHE376     -0.1962
     85  CA       -36.0530   35.7620   23.7330 C.3   376  PHE376      0.1771
     86  C        -35.4830   34.3420   23.8790 C.2   376  PHE376      0.2620
     87  O        -34.6650   33.9080   23.0520 O.2   376  PHE376     -0.2715
     88  CB       -36.1080   36.0870   22.2280 C.3   376  PHE376      0.0574
     89  CG       -36.7450   37.4040   21.9080 C.ar  376  PHE376     -0.0200
     90  CD1      -38.1290   37.5150   21.8140 C.ar  376  PHE376     -0.0042
     91  CD2      -35.9660   38.5440   21.7470 C.ar  376  PHE376     -0.0042
     92  CE1      -38.7290   38.7480   21.5730 C.ar  376  PHE376     -0.0003
     93  CE2      -36.5510   39.7760   21.5070 C.ar  376  PHE376     -0.0003
     94  CZ       -37.9340   39.8820   21.4220 C.ar  376  PHE376     -0.0000
     95  N        -35.9120   33.6050   24.8970 N.am  377  GLY377     -0.1940
     96  CA       -35.4220   32.2480   25.0780 C.3   377  GLY377      0.2014
     97  C        -36.0540   31.3340   24.0390 C.2   377  GLY377      0.2639
     98  O        -35.4800   31.0820   22.9700 O.2   377  GLY377     -0.2714
     99  N        -37.2620   30.8560   24.3320 N.am  378  GLY378     -0.1939
    100  CA       -37.9680   29.9930   23.3960 C.3   378  GLY378      0.2014
    101  C        -38.2610   30.6990   22.0770 C.2   378  GLY378      0.2639
    102  O        -38.4840   30.0490   21.0600 O.2   378  GLY378     -0.2714
    103  N        -38.2720   32.0290   22.1020 N.am  379  GLY379     -0.1954
    104  CA       -38.5140   32.8230   20.9110 C.3   379  GLY379      0.1869
    105  C        -37.3810   32.7450   19.9040 C.2   379  GLY379      0.2309
    106  O        -37.5300   33.1950   18.7680 O.2   379  GLY379     -0.2863
@<TRIPOS>BOND
     1   106   105    2
     2   105   104    1
     3   104   103    1
     4   102   101    2
     5    94    93   ar
     6    94    92   ar
     7    93    91   ar
     8    92    90   ar
     9    91    89   ar
    10    90    89   ar
    11    89    88    1
    12   101   103   am
    13   101   100    1
    14    88    85    1
    15    69    70    2
    16    69    68    1
    17    98    97    2
    18    87    86    2
    19   100    99    1
    20    85    86    1
    21    85    84    1
    22    86    95   am
    23    68    71    1
    24    68    67    1
    25    97    99   am
    26    97    96    1
    27    71    72    1
    28    71    73    1
    29    84    77   am
    30    66    65    2
    31    72    74    1
    32    95    96    1
    33    67    65   am
    34    65    64    1
    35    77    78    2
    36    77    76    1
    37    11    10    2
    38    75    76    1
    39    76    79    1
    40     4     3    2
    41     1     2    1
    42    64    63    1
    43    10     9    1
    44    13    14    1
    45    13    12    1
    46     8     9    1
    47     3     2    1
    48    14    15    1
    49     9    12    1
    50    83    81   am
    51    79    80    1
    52     2     5    1
    53    63    61   am
    54    80    81    1
    55    62    61    2
    56    81    82    2
    57    61    60    1
    58     5     6    1
    59     5     7    1
    60    15    16    1
    61    59    60    1
    62    59    55   am
    63    54    53    1
    64    54    55    1
    65    54    57    1
    66    55    56    2
    67    58    57    1
    68    17    18    1
    69    18    19    1
    70    18    21    1
    71    19    20    2
    72    26    27    1
    73    21    22    1
    74    22    23    1
    75    32    31   ar
    76    30    27    1
    77    30    31    1
    78    27    28    1
    79    24    23    1
    80    24    25    1
    81    31    33   ar
    82    28    29    2
    83    28    34   am
    84    34    35    1
    85    50    52   ar
    86    50    48   ar
    87    41    40   ar
    88    52    51   ar
    89    40    42   ar
    90    40    39    1
    91    48    47    1
    92    48    49   ar
    93    51    49   ar
    94    35    38    1
    95    35    36    1
    96    47    44    1
    97    38    39    1
    98    44    43    1
    99    44    45    1
   100    36    37    2
   101    45    46    2
