@<TRIPOS>MOLECULE
tmp/1aaqA00.pdb
 105 98 0 0 0
SMALL
GASTEIGER

@<TRIPOS>ATOM
      1  N        -21.8510   20.1220    7.5200 N.3     8  ARG8       -0.1301
      2  CA       -21.1220   19.9870    6.2790 C.3     8  ARG8        0.1248
      3  C        -21.9210   20.6850    5.2040 C.3     8  ARG8        0.2009
      4  O        -23.1300   20.4090    5.2290 O.3     8  ARG8       -0.2188
      5  CB       -20.9750   18.5400    5.8800 C.3     8  ARG8        0.0254
      6  CG       -19.8900   17.8310    6.6830 C.3     8  ARG8        0.0485
      7  CD       -19.6150   16.4260    6.1350 C.3     8  ARG8        0.2205
      8  NE       -18.7760   15.5660    6.9760 N.pl3   8  ARG8       -0.0865
      9  CZ       -18.3020   14.3600    6.5880 C.cat   8  ARG8        0.5346
     10  NH1      -18.5540   13.8040    5.3910 N.pl3   8  ARG8        0.1354
     11  NH2      -17.5610   13.6830    7.4570 N.pl3   8  ARG8        0.1354
     12  N        -20.6320   17.5790   -1.4880 N.3    23  LEU23      -0.1245
     13  CA       -20.0920   18.5410   -0.5290 C.3    23  LEU23       0.1561
     14  C        -19.4340   19.7310   -1.2340 C.2    23  LEU23       0.2260
     15  O        -18.5680   19.4460   -2.0640 O.2    23  LEU23      -0.2867
     16  CB       -19.1210   17.7160    0.2650 C.3    23  LEU23       0.0270
     17  CG       -18.2750   18.1430    1.4510 C.3    23  LEU23       0.0019
     18  CD1      -19.0620   17.7660    2.6470 C.3    23  LEU23       0.0001
     19  CD2      -16.8710   17.4970    1.4420 C.3    23  LEU23       0.0001
     20  N        -16.5390   21.9410   -1.7580 N.3    25  ASP25      -0.1239
     21  CA       -15.2400   21.8790   -1.1910 C.3    25  ASP25       0.1674
     22  C        -14.3120   22.9620   -1.7290 C.2    25  ASP25       0.2266
     23  O        -13.8410   22.8280   -2.8550 O.2    25  ASP25      -0.2867
     24  CB       -14.7120   20.5330   -1.5300 C.3    25  ASP25       0.1410
     25  CG       -13.5790   20.0440   -0.6430 C.2    25  ASP25       0.3668
     26  OD1      -12.9560   20.7860    0.1420 O.co2  25  ASP25      -0.2456
     27  OD2      -13.3000   18.8480   -0.7540 O.co2  25  ASP25      -0.2456
     28  N        -11.1910   23.4160   -0.7780 N.3    27  GLY27      -0.1210
     29  CA        -9.8160   22.9090   -0.8690 C.3    27  GLY27       0.1956
     30  C         -9.6420   21.8030   -1.8780 C.2    27  GLY27       0.2612
     31  O         -8.7260   20.9920   -1.7280 O.2    27  GLY27      -0.2717
     32  N        -10.5160   21.6430   -2.8840 N.am   28  ALA28      -0.1965
     33  CA       -10.3830   20.6150   -3.9160 C.3    28  ALA28       0.1728
     34  C        -10.3960   21.3290   -5.2540 C.2    28  ALA28       0.2616
     35  O        -11.3360   22.0080   -5.6280 O.2    28  ALA28      -0.2715
     36  CB       -11.5440   19.6420   -3.8650 C.3    28  ALA28       0.0334
     37  N         -9.3040   21.2340   -5.9730 N.am   29  ASP29      -0.1957
     38  CA        -9.2030   21.8460   -7.2960 C.3    29  ASP29       0.1840
     39  C        -10.0790   21.2340   -8.3860 C.2    29  ASP29       0.2622
     40  O        -10.5860   22.0170   -9.2140 O.2    29  ASP29      -0.2715
     41  CB        -7.8430   21.7650   -7.8160 C.3    29  ASP29       0.1450
     42  CG        -6.8370   22.0050   -6.7260 C.2    29  ASP29       0.3671
     43  OD1       -7.0270   22.8890   -5.8850 O.co2  29  ASP29      -0.2456
     44  OD2       -5.8790   21.2430   -6.7170 O.co2  29  ASP29      -0.2456
     45  N        -10.2730   19.8760   -8.3270 N.am   30  ASP30      -0.1971
     46  CA       -11.0130   19.0370   -9.2890 C.3    30  ASP30       0.1709
     47  C        -12.3020   18.4910   -8.6900 C.2    30  ASP30       0.2293
     48  O        -12.3470   18.2840   -7.4840 O.2    30  ASP30      -0.2864
     49  CB       -10.1620   17.8530   -9.7200 C.3    30  ASP30       0.1436
     50  CG        -8.7680   18.2480  -10.1910 C.2    30  ASP30       0.3671
     51  OD1       -8.6380   18.8480  -11.2580 O.co2  30  ASP30      -0.2456
     52  OD2       -7.8030   17.9710   -9.4770 O.co2  30  ASP30      -0.2456
     53  N        -14.6590   15.3710   -7.8200 N.3    32  VAL32      -0.1245
     54  CA       -14.3910   13.9330   -7.8550 C.3    32  VAL32       0.1561
     55  C        -15.6940   13.3520   -7.3840 C.2    32  VAL32       0.2260
     56  O        -16.1260   13.7800   -6.3100 O.2    32  VAL32      -0.2867
     57  CB       -13.3150   13.4260   -6.8600 C.3    32  VAL32       0.0252
     58  CG1      -13.1010   11.9500   -7.0900 C.3    32  VAL32       0.0019
     59  CG2      -12.0350   14.1560   -7.0240 C.3    32  VAL32       0.0019
     60  N         -5.1420   11.5260   -8.7980 N.3    47  ILE47      -0.1231
     61  CA        -5.4180   12.7400   -8.0290 C.3    47  ILE47       0.1692
     62  C         -4.8000   12.4870   -6.6950 C.2    47  ILE47       0.2593
     63  O         -4.8120   11.3430   -6.2350 O.2    47  ILE47      -0.2718
     64  CB        -7.0220   12.9320   -7.9610 C.3    47  ILE47       0.0266
     65  CG1       -7.2920   14.3450   -7.6940 C.3    47  ILE47       0.0019
     66  CG2       -7.7700   12.2790   -6.8310 C.3    47  ILE47       0.0020
     67  CD1       -7.4390   14.9200   -9.0960 C.3    47  ILE47       0.0001
     68  N         -4.3240   13.5490   -6.0700 N.am   48  GLY48      -0.1942
     69  CA        -3.8440   13.4820   -4.6990 C.3    48  GLY48       0.2014
     70  C         -4.8280   14.0550   -3.6690 C.2    48  GLY48       0.2639
     71  O         -5.6220   14.9560   -3.9610 O.2    48  GLY48      -0.2714
     72  N         -4.7250   13.5660   -2.4370 N.am   49  GLY49      -0.1939
     73  CA        -5.5070   13.9730   -1.2840 C.3    49  GLY49       0.2014
     74  C         -4.6820   13.8150   -0.0040 C.2    49  GLY49       0.2638
     75  O         -3.4520   13.8300    0.0080 O.2    49  GLY49      -0.2714
     76  N         -5.3500   13.6660    1.1220 N.am   50  ILE50      -0.1977
     77  CA        -4.7340   13.4700    2.4240 C.3    50  ILE50       0.1596
     78  C         -4.6350   11.9590    2.3740 C.2    50  ILE50       0.2287
     79  O         -5.4800   11.2430    1.8520 O.2    50  ILE50      -0.2864
     80  CB        -5.6770   13.9670    3.6610 C.3    50  ILE50       0.0276
     81  CG1       -4.9870   15.0230    4.5130 C.3    50  ILE50       0.0022
     82  CG2       -5.9110   12.9070    4.7260 C.3    50  ILE50       0.0022
     83  CD1       -5.0390   16.5210    4.0730 C.3    50  ILE50       0.0001
     84  N        -14.6000    8.8800   -1.0360 N.3    81  PRO81      -0.2102
     85  CA       -15.6010    8.5380   -0.0280 C.3    81  PRO81       0.1504
     86  C        -16.8620    9.3820   -0.0180 C.2    81  PRO81       0.2575
     87  O        -17.8630    9.0160    0.6120 O.2    81  PRO81      -0.2718
     88  CB       -14.8670    8.6120    1.3010 C.3    81  PRO81       0.0282
     89  CG       -13.8620    9.6690    1.0710 C.3    81  PRO81       0.0208
     90  CD       -13.4190    9.3930   -0.3400 C.3    81  PRO81       0.0893
     91  N        -16.8230   10.5370   -0.6800 N.am   82  VAL82      -0.1980
     92  CA       -17.9830   11.3610   -0.6570 C.3    82  VAL82       0.1595
     93  C        -17.9120   12.0990   -1.9600 C.2    82  VAL82       0.2287
     94  O        -16.8420   12.2470   -2.5150 O.2    82  VAL82      -0.2864
     95  CB       -17.8420   12.2000    0.6580 C.3    82  VAL82       0.0276
     96  CG1      -16.7520   13.2460    0.5730 C.3    82  VAL82       0.0022
     97  CG2      -19.1800   12.8050    0.9580 C.3    82  VAL82       0.0022
     98  N        -17.3690   15.2480   -4.0670 N.3    84  ILE84      -0.1245
     99  CA       -16.6980   16.5350   -3.8540 C.3    84  ILE84       0.1561
    100  C        -17.0210   17.4380   -5.0570 C.2    84  ILE84       0.2260
    101  O        -16.7200   16.9680   -6.1590 O.2    84  ILE84      -0.2867
    102  CB       -15.1290   16.2130   -3.7240 C.3    84  ILE84       0.0252
    103  CG1      -14.8570   15.5160   -2.3230 C.3    84  ILE84       0.0019
    104  CG2      -14.2890   17.4470   -3.9990 C.3    84  ILE84       0.0019
    105  CD1      -13.5650   14.6400   -2.1620 C.3    84  ILE84       0.0001
@<TRIPOS>BOND
     1    51    50   ar
     2    50    49    1
     3    50    52   ar
     4    49    46    1
     5    46    47    1
     6    46    45    1
     7    40    39    2
     8    67    65    1
     9    60    61    1
    10    47    48    2
    11    39    45   am
    12    39    38    1
    13    61    64    1
    14    61    62    1
    15    64    65    1
    16    64    66    1
    17    54    53    1
    18    54    55    1
    19    54    57    1
    20    41    38    1
    21    41    42    1
    22    55    56    2
    23    38    37    1
    24    58    57    1
    25    59    57    1
    26    42    44   ar
    27    42    43   ar
    28    62    63    2
    29    62    68   am
    30   101   100    2
    31    68    69    1
    32    37    34   am
    33    35    34    2
    34    34    33    1
    35   100    99    1
    36    69    70    1
    37    98    99    1
    38   104   102    1
    39    71    70    2
    40    33    36    1
    41    33    32    1
    42    99   102    1
    43   102   103    1
    44    70    72   am
    45    32    30   am
    46    23    22    2
    47    94    93    2
    48    72    73    1
    49   103   105    1
    50    15    14    2
    51    93    92    1
    52    30    31    2
    53    30    29    1
    54    20    21    1
    55    22    21    1
    56    24    21    1
    57    24    25    1
    58    12    13    1
    59    73    74    1
    60    14    13    1
    61    84    90    1
    62    84    85    1
    63    29    28    1
    64    27    25   ar
    65    91    92    1
    66    91    86   am
    67    92    95    1
    68    25    26   ar
    69    13    16    1
    70    90    89    1
    71    85    86    1
    72    85    88    1
    73    86    87    2
    74    74    75    2
    75    74    76   am
    76    16    17    1
    77    96    95    1
    78    95    97    1
    79    89    88    1
    80    76    77    1
    81    19    17    1
    82    17    18    1
    83    79    78    2
    84    78    77    1
    85    77    80    1
    86    80    81    1
    87    80    82    1
    88    83    81    1
    89     3     4    1
    90     3     2    1
    91    10     9    1
    92     5     2    1
    93     5     6    1
    94     7     6    1
    95     7     8    1
    96     2     1    1
    97     9     8    2
    98     9    11    1
