@<TRIPOS>MOLECULE
tmp/1aaxA01.pdb
 88 81 0 0 0
SMALL
GASTEIGER

@<TRIPOS>ATOM
      1  N         58.6310    6.0560    7.0790 N.3    23  ARG23      -0.1245
      2  CA        57.5430    5.3870    6.3840 C.3    23  ARG23       0.1563
      3  C         57.8190    3.8990    6.2700 C.2    23  ARG23       0.2260
      4  O         56.9070    3.0780    6.3720 O.2    23  ARG23      -0.2867
      5  CB        57.3740    5.9510    4.9880 C.3    23  ARG23       0.0307
      6  CG        57.0160    7.4020    4.9650 C.3    23  ARG23       0.0489
      7  CD        56.5060    7.7870    3.6100 C.3    23  ARG23       0.2205
      8  NE        55.4840    6.8450    3.1950 N.pl3  23  ARG23      -0.0865
      9  CZ        55.5040    6.1810    2.0440 C.cat  23  ARG23       0.5346
     10  NH1       56.4940    6.3710    1.1730 N.pl3  23  ARG23       0.1354
     11  NH2       54.5710    5.2720    1.7900 N.pl3  23  ARG23       0.1354
     12  N         57.2520    2.0660    9.6950 N.3    26  ALA26      -0.1231
     13  CA        55.9040    2.2440   10.2390 C.3    26  ALA26       0.1694
     14  C         55.0820    0.9550   10.3160 C.2    26  ALA26       0.2592
     15  O         55.2250    0.0680    9.4750 O.2    26  ALA26      -0.2718
     16  CB        55.1500    3.3280    9.4480 C.3    26  ALA26       0.0304
     17  N         54.2200    0.8640   11.3240 N.am   27  SER27      -0.1952
     18  CA        53.3760   -0.3090   11.5340 C.3    27  SER27       0.1924
     19  C         52.3940   -0.5450   10.3970 C.2    27  SER27       0.2314
     20  O         52.0010    0.3970    9.7200 O.2    27  SER27      -0.2863
     21  CB        52.5830   -0.1410   12.8250 C.3    27  SER27       0.2116
     22  OG        53.4490    0.0290   13.9280 O.3    27  SER27      -0.2180
     23  N         42.4530    5.4660    0.3590 N.3    47  ASP47      -0.1225
     24  CA        43.7410    5.0860    0.9560 C.3    47  ASP47       0.1805
     25  C         44.0400    5.5220    2.3930 C.2    47  ASP47       0.2597
     26  O         45.1900    5.4450    2.8320 O.2    47  ASP47      -0.2718
     27  CB        44.8900    5.5620    0.0630 C.3    47  ASP47       0.1424
     28  CG        44.7900    5.0270   -1.3440 C.2    47  ASP47       0.3668
     29  OD1       44.3390    3.8760   -1.5270 O.co2  47  ASP47      -0.2456
     30  OD2       45.1510    5.7720   -2.2720 O.co2  47  ASP47      -0.2456
     31  N         43.0460    6.0440    3.0970 N.am   48  VAL48      -0.1980
     32  CA        43.2540    6.4610    4.4720 C.3    48  VAL48       0.1595
     33  C         42.1500    5.8120    5.2870 C.2    48  VAL48       0.2287
     34  O         40.9700    6.1800    5.1920 O.2    48  VAL48      -0.2864
     35  CB        43.2220    7.9990    4.6290 C.3    48  VAL48       0.0276
     36  CG1       43.4530    8.3800    6.1090 C.3    48  VAL48       0.0022
     37  CG2       44.2690    8.6500    3.7280 C.3    48  VAL48       0.0022
     38  N         49.1920   19.2040    2.7350 N.3   181  PHE181     -0.1241
     39  CA        50.5350   18.8240    2.3250 C.3   181  PHE181      0.1605
     40  C         51.5100   19.9800    2.5190 C.2   181  PHE181      0.2264
     41  O         52.6490   19.9420    2.0360 O.2   181  PHE181     -0.2867
     42  CB        50.5510   18.2520    0.8990 C.3   181  PHE181      0.0534
     43  CG        49.8920   16.9040    0.8050 C.ar  181  PHE181     -0.0203
     44  CD1       50.6070   15.7460    1.1100 C.ar  181  PHE181     -0.0042
     45  CD2       48.5310   16.7960    0.5390 C.ar  181  PHE181     -0.0042
     46  CE1       49.9700   14.5010    1.1610 C.ar  181  PHE181     -0.0003
     47  CE2       47.8880   15.5560    0.5900 C.ar  181  PHE181     -0.0003
     48  CZ        48.6110   14.4080    0.9050 C.ar  181  PHE181     -0.0000
     49  N         45.4060   12.8110    8.9450 N.3   218  ILE218     -0.1245
     50  CA        46.7260   12.2020    9.1090 C.3   218  ILE218      0.1561
     51  C         47.9330   13.1370    8.9270 C.2   218  ILE218      0.2260
     52  O         48.9110   13.0300    9.6620 O.2   218  ILE218     -0.2867
     53  CB        46.9140   10.9370    8.1740 C.3   218  ILE218      0.0252
     54  CG1       46.7870   11.3140    6.6900 C.3   218  ILE218      0.0019
     55  CG2       45.9010    9.8420    8.5270 C.3   218  ILE218      0.0019
     56  CD1       47.0550   10.1560    5.7330 C.3   218  ILE218      0.0001
     57  N         52.1960    6.1580   14.9300 N.3   253  ARG253     -0.1245
     58  CA        51.8290    5.4150   13.7220 C.3   253  ARG253      0.1563
     59  C         51.3720    3.9850   13.9900 C.2   253  ARG253      0.2260
     60  O         50.8900    3.3150   13.0880 O.2   253  ARG253     -0.2867
     61  CB        52.9320    5.4770   12.6580 C.3   253  ARG253      0.0307
     62  CG        52.8940    6.7640   11.8100 C.3   253  ARG253      0.0489
     63  CD        54.0210    6.8010   10.7650 C.3   253  ARG253      0.2205
     64  NE        53.9370    7.9450    9.8470 N.pl3 253  ARG253     -0.0865
     65  CZ        53.9530    7.8640    8.5110 C.cat 253  ARG253      0.5346
     66  NH1       54.0350    6.6870    7.8950 N.pl3 253  ARG253      0.1354
     67  NH2       53.9360    8.9740    7.7830 N.pl3 253  ARG253      0.1354
     68  N         47.5610    5.1100   10.4190 N.3   257  MET257     -0.1230
     69  CA        48.4760    5.1680    9.2850 C.3   257  MET257      0.1702
     70  C         48.7800    6.5780    8.7610 C.2   257  MET257      0.2592
     71  O         47.9780    7.5030    8.8970 O.2   257  MET257     -0.2718
     72  CB        47.8950    4.3660    8.1140 C.3   257  MET257      0.0401
     73  CG        46.5770    4.9400    7.5550 C.3   257  MET257      0.0596
     74  SD        45.9900    4.1100    6.0750 S.3   257  MET257     -0.1393
     75  CE        45.6740    2.4570    6.7430 C.3   257  MET257      0.0692
     76  N         49.9610    6.7180    8.1700 N.am  258  GLY258     -0.1957
     77  CA        50.3840    7.9560    7.5330 C.3   258  GLY258      0.1869
     78  C         50.5130    9.2700    8.2680 C.2   258  GLY258      0.2309
     79  O         50.5690   10.3200    7.6150 O.2   258  GLY258     -0.2863
     80  N         52.4500   13.6970    6.5700 N.3   261  GLN261     -0.1245
     81  CA        52.4970   13.3270    5.1630 C.3   261  GLN261      0.1566
     82  C         53.6460   13.7580    4.2640 C.2   261  GLN261      0.2260
     83  O         53.7520   13.2690    3.1450 O.2   261  GLN261     -0.2867
     84  CB        51.1580   13.6750    4.5250 C.3   261  GLN261      0.0367
     85  CG        50.0770   12.6680    4.8850 C.3   261  GLN261      0.0905
     86  CD        50.2650   11.3680    4.1220 C.2   261  GLN261      0.2608
     87  OE1       50.0030   11.3130    2.9190 O.2   261  GLN261     -0.2717
     88  NE2       50.7640   10.3350    4.7970 N.am  261  GLN261     -0.0878
@<TRIPOS>BOND
     1    30    28   ar
     2    29    28   ar
     3    28    27    1
     4    27    24    1
     5    23    24    1
     6    45    47   ar
     7    45    43   ar
     8    47    48   ar
     9    43    42    1
    10    43    44   ar
    11    42    39    1
    12    48    46   ar
    13    24    25    1
    14    44    46   ar
    15    10     9    1
    16    11     9    1
    17    41    40    2
    18     9     8    2
    19    39    40    1
    20    39    38    1
    21    25    26    2
    22    25    31   am
    23    87    86    2
    24    31    32    1
    25    83    82    2
    26     8     7    1
    27     7     6    1
    28    37    35    1
    29    86    88   am
    30    86    85    1
    31    82    81    1
    32    32    35    1
    33    32    33    1
    34    84    85    1
    35    84    81    1
    36    35    36    1
    37     6     5    1
    38     5     2    1
    39    81    80    1
    40    34    33    2
    41    56    54    1
    42    74    75    1
    43    74    73    1
    44     3     4    2
    45     3     2    1
    46     2     1    1
    47    54    53    1
    48    77    76    1
    49    77    78    1
    50    73    72    1
    51    79    78    2
    52    67    65    1
    53    66    65    1
    54    72    69    1
    55    76    70   am
    56    53    55    1
    57    53    50    1
    58    65    64    2
    59    70    71    2
    60    70    69    1
    61    51    50    1
    62    51    52    2
    63    49    50    1
    64    69    68    1
    65    16    13    1
    66    15    14    2
    67    12    13    1
    68    20    19    2
    69    64    63    1
    70    13    14    1
    71    14    17   am
    72    19    18    1
    73    63    62    1
    74    17    18    1
    75    18    21    1
    76    62    61    1
    77    61    58    1
    78    21    22    1
    79    60    59    2
    80    58    59    1
    81    58    57    1
