@<TRIPOS>MOLECULE
tmp/1aaxA00.pdb
 108 104 0 0 0
SMALL
GASTEIGER

@<TRIPOS>ATOM
      1  N         38.5940    9.0960    1.8370 N.3    45  TYR45      -0.1241
      2  CA        39.6760    8.6500    0.9690 C.3    45  TYR45       0.1605
      3  C         39.8740    7.1460    1.0220 C.2    45  TYR45       0.2264
      4  O         40.0280    6.5500    2.0740 O.2    45  TYR45      -0.2867
      5  CB        40.9880    9.3260    1.3530 C.3    45  TYR45       0.0534
      6  CG        40.9310   10.8180    1.2560 C.ar   45  TYR45      -0.0201
      7  CD1       40.8240   11.4440    0.0210 C.ar   45  TYR45      -0.0009
      8  CD2       40.9630   11.6060    2.3970 C.ar   45  TYR45      -0.0009
      9  CE1       40.7560   12.8320   -0.0800 C.ar   45  TYR45       0.0417
     10  CE2       40.8950   12.9950    2.3150 C.ar   45  TYR45       0.0417
     11  CZ        40.7920   13.6050    1.0710 C.ar   45  TYR45       0.1957
     12  OH        40.7600   14.9850    0.9740 O.3    45  TYR45      -0.2866
     13  N         42.4530    5.4660    0.3590 N.3    47  ASP47      -0.1225
     14  CA        43.7410    5.0860    0.9560 C.3    47  ASP47       0.1805
     15  C         44.0400    5.5220    2.3930 C.2    47  ASP47       0.2597
     16  O         45.1900    5.4450    2.8320 O.2    47  ASP47      -0.2718
     17  CB        44.8900    5.5620    0.0630 C.3    47  ASP47       0.1424
     18  CG        44.7900    5.0270   -1.3440 C.2    47  ASP47       0.3668
     19  OD1       44.3390    3.8760   -1.5270 O.co2  47  ASP47      -0.2456
     20  OD2       45.1510    5.7720   -2.2720 O.co2  47  ASP47      -0.2456
     21  N         43.0460    6.0440    3.0970 N.am   48  VAL48      -0.1980
     22  CA        43.2540    6.4610    4.4720 C.3    48  VAL48       0.1595
     23  C         42.1500    5.8120    5.2870 C.2    48  VAL48       0.2287
     24  O         40.9700    6.1800    5.1920 O.2    48  VAL48      -0.2864
     25  CB        43.2220    7.9990    4.6290 C.3    48  VAL48       0.0276
     26  CG1       43.4530    8.3800    6.1090 C.3    48  VAL48       0.0022
     27  CG2       44.2690    8.6500    3.7280 C.3    48  VAL48       0.0022
     28  N         46.9770   21.9490    2.6990 N.3   180  ASP180     -0.1225
     29  CA        47.1430   20.4910    2.7350 C.3   180  ASP180      0.1805
     30  C         48.5100   20.1750    2.1450 C.2   180  ASP180      0.2597
     31  O         48.9520   20.8370    1.2090 O.2   180  ASP180     -0.2718
     32  CB        46.0260   19.7590    1.9790 C.3   180  ASP180      0.1424
     33  CG        45.9080   20.2010    0.5490 C.2   180  ASP180      0.3668
     34  OD1       45.6250   21.4040    0.3220 O.co2 180  ASP180     -0.2456
     35  OD2       46.1010   19.3410   -0.3400 O.co2 180  ASP180     -0.2456
     36  N         49.1920   19.2040    2.7350 N.am  181  PHE181     -0.1976
     37  CA        50.5350   18.8240    2.3250 C.3   181  PHE181      0.1639
     38  C         51.5100   19.9800    2.5190 C.2   181  PHE181      0.2290
     39  O         52.6490   19.9420    2.0360 O.2   181  PHE181     -0.2864
     40  CB        50.5510   18.2520    0.8990 C.3   181  PHE181      0.0560
     41  CG        49.8920   16.9040    0.8050 C.ar  181  PHE181     -0.0200
     42  CD1       50.6070   15.7460    1.1100 C.ar  181  PHE181     -0.0042
     43  CD2       48.5310   16.7960    0.5390 C.ar  181  PHE181     -0.0042
     44  CE1       49.9700   14.5010    1.1610 C.ar  181  PHE181     -0.0003
     45  CE2       47.8880   15.5560    0.5900 C.ar  181  PHE181     -0.0003
     46  CZ        48.6110   14.4080    0.9050 C.ar  181  PHE181     -0.0000
     47  N         41.7190   16.8740    9.9880 N.3   214  SER214     -0.1202
     48  CA        42.1230   17.6610    8.8440 C.3   214  SER214      0.2020
     49  C         41.1800   17.1060    7.7680 C.2   214  SER214      0.2619
     50  O         40.0280   16.8170    8.0800 O.2   214  SER214     -0.2717
     51  CB        43.6050   17.4340    8.5370 C.3   214  SER214      0.2103
     52  OG        43.9930   16.0940    8.7860 O.3   214  SER214     -0.2182
     53  N         41.6020   17.0030    6.5150 N.am  215  SER215     -0.1937
     54  CA        40.7040   16.4260    5.5310 C.3   215  SER215      0.2055
     55  C         40.7870   14.8960    5.6840 C.2   215  SER215      0.2643
     56  O         39.7740   14.2220    5.8560 O.2   215  SER215     -0.2714
     57  CB        41.1070   16.8410    4.1280 C.3   215  SER215      0.2130
     58  OG        40.1330   16.3880    3.2180 O.3   215  SER215     -0.2179
     59  N         42.0050   14.3570    5.6520 N.am  216  ALA216     -0.1963
     60  CA        42.2170   12.9120    5.8150 C.3   216  ALA216      0.1728
     61  C         42.4120   12.5070    7.2780 C.2   216  ALA216      0.2617
     62  O         42.1980   11.3460    7.6400 O.2   216  ALA216     -0.2715
     63  CB        43.4150   12.4690    5.0180 C.3   216  ALA216      0.0334
     64  N         42.8260   13.4610    8.1120 N.am  217  GLY217     -0.1940
     65  CA        43.0620   13.1710    9.5190 C.3   217  GLY217      0.2014
     66  C         44.4070   12.4990    9.7680 C.2   217  GLY217      0.2639
     67  O         44.5510   11.7170   10.7060 O.2   217  GLY217     -0.2714
     68  N         45.4060   12.8110    8.9450 N.am  218  ILE218     -0.1963
     69  CA        46.7260   12.2020    9.1090 C.3   218  ILE218      0.1727
     70  C         47.9330   13.1370    8.9270 C.2   218  ILE218      0.2617
     71  O         48.9110   13.0300    9.6620 O.2   218  ILE218     -0.2715
     72  CB        46.9140   10.9370    8.1740 C.3   218  ILE218      0.0290
     73  CG1       46.7870   11.3140    6.6900 C.3   218  ILE218      0.0022
     74  CG2       45.9010    9.8420    8.5270 C.3   218  ILE218      0.0023
     75  CD1       47.0550   10.1560    5.7330 C.3   218  ILE218      0.0001
     76  N         47.8850   14.0260    7.9300 N.am  219  GLY219     -0.1940
     77  CA        49.0100   14.9240    7.6500 C.3   219  GLY219      0.2014
     78  C         49.1900   16.0530    8.6380 C.2   219  GLY219      0.2638
     79  O         50.0800   16.0340    9.4900 O.2   219  GLY219     -0.2714
     80  N         48.3500   17.0660    8.5040 N.am  220  ARG220     -0.1977
     81  CA        48.3950   18.2070    9.4050 C.3   220  ARG220      0.1597
     82  C         48.0750   17.7360   10.8480 C.2   220  ARG220      0.2287
     83  O         48.6980   18.2010   11.8120 O.2   220  ARG220     -0.2864
     84  CB        47.4260   19.2870    8.9080 C.3   220  ARG220      0.0334
     85  CG        47.8480   19.8720    7.5610 C.3   220  ARG220      0.0492
     86  CD        46.7370   20.6700    6.9080 C.3   220  ARG220      0.2205
     87  NE        45.7690   19.8100    6.2300 N.pl3 220  ARG220     -0.0865
     88  CZ        44.7970   20.2480    5.4340 C.cat 220  ARG220      0.5346
     89  NH1       44.6570   21.5430    5.2120 N.pl3 220  ARG220      0.1354
     90  NH2       43.9650   19.3890    4.8580 N.pl3 220  ARG220      0.1354
     91  N         52.4500   13.6970    6.5700 N.3   261  GLN261     -0.1245
     92  CA        52.4970   13.3270    5.1630 C.3   261  GLN261      0.1566
     93  C         53.6460   13.7580    4.2640 C.2   261  GLN261      0.2260
     94  O         53.7520   13.2690    3.1450 O.2   261  GLN261     -0.2867
     95  CB        51.1580   13.6750    4.5250 C.3   261  GLN261      0.0367
     96  CG        50.0770   12.6680    4.8850 C.3   261  GLN261      0.0905
     97  CD        50.2650   11.3680    4.1220 C.2   261  GLN261      0.2608
     98  OE1       50.0030   11.3130    2.9190 O.2   261  GLN261     -0.2717
     99  NE2       50.7640   10.3350    4.7970 N.am  261  GLN261     -0.0878
    100  N         56.8450   18.5780    6.6770 N.3   265  GLN265     -0.1245
    101  CA        55.9880   18.5980    7.8640 C.3   265  GLN265      0.1566
    102  C         56.7930   17.9990    9.0190 C.2   265  GLN265      0.2260
    103  O         56.7040   18.4730   10.1670 O.2   265  GLN265     -0.2867
    104  CB        54.7070   17.7930    7.6330 C.3   265  GLN265      0.0367
    105  CG        53.7280   18.4750    6.6860 C.3   265  GLN265      0.0905
    106  CD        52.4700   17.6650    6.4290 C.2   265  GLN265      0.2608
    107  OE1       52.4280   16.4530    6.6860 O.2   265  GLN265     -0.2717
    108  NE2       51.4280   18.3310    5.9390 N.am  265  GLN265     -0.0878
@<TRIPOS>BOND
     1    20    18   ar
     2    19    18   ar
     3    18    17    1
     4    35    33   ar
     5     9     7   ar
     6     9    11   ar
     7     7     6   ar
     8    17    14    1
     9    34    33   ar
    10    13    14    1
    11    43    45   ar
    12    43    41   ar
    13    33    32    1
    14    45    46   ar
    15    41    40    1
    16    41    42   ar
    17    40    37    1
    18    46    44   ar
    19    14    15    1
    20     2     3    1
    21     2     5    1
    22     2     1    1
    23    12    11    1
    24     3     4    2
    25    11    10   ar
    26    42    44   ar
    27    31    30    2
    28     6     5    1
    29     6     8   ar
    30    32    29    1
    31    39    38    2
    32    30    29    1
    33    30    36   am
    34    10     8   ar
    35    37    38    1
    36    37    36    1
    37    15    16    2
    38    15    21   am
    39    28    29    1
    40    98    97    2
    41    21    22    1
    42    94    93    2
    43    58    57    1
    44    27    25    1
    45    97    99   am
    46    97    96    1
    47    57    54    1
    48    93    92    1
    49    22    25    1
    50    22    23    1
    51    95    96    1
    52    95    92    1
    53    25    26    1
    54    90    88    1
    55    63    60    1
    56    92    91    1
    57    24    23    2
    58    89    88    1
    59    88    87    2
    60    54    55    1
    61    54    53    1
    62    59    55   am
    63    59    60    1
    64    55    56    2
    65    75    73    1
    66    60    61    1
    67   108   106   am
    68    87    86    1
    69   106   105    1
    70   106   107    2
    71    53    49   am
    72   100   101    1
    73   105   104    1
    74    73    72    1
    75    86    85    1
    76    61    62    2
    77    61    64   am
    78    85    84    1
    79   104   101    1
    80    77    76    1
    81    77    78    1
    82    49    50    2
    83    49    48    1
    84   101   102    1
    85    76    70   am
    86    64    65    1
    87    72    74    1
    88    72    69    1
    89    80    78   am
    90    80    81    1
    91    51    52    1
    92    51    48    1
    93    78    79    2
    94    48    47    1
    95    84    81    1
    96    70    69    1
    97    70    71    2
    98    68    69    1
    99    68    66   am
   100   102   103    2
   101    81    82    1
   102    65    66    1
   103    66    67    2
   104    82    83    2
