@<TRIPOS>MOLECULE
tmp/1ab8A00.pdb
 91 87 0 0 0
SMALL
GASTEIGER

@<TRIPOS>ATOM
      1  N         56.6420   81.2710    0.4860 N.3    13  PHE13      -0.1241
      2  CA        55.7060   80.7420   -0.4960 C.3    13  PHE13       0.1605
      3  C         55.8160   81.6730   -1.6880 C.2    13  PHE13       0.2264
      4  O         55.3050   82.7890   -1.6630 O.2    13  PHE13      -0.2867
      5  CB        54.2910   80.7170    0.0530 C.3    13  PHE13       0.0534
      6  CG        54.0390   79.5720    0.9610 C.ar   13  PHE13      -0.0203
      7  CD1       53.6760   78.3360    0.4440 C.ar   13  PHE13      -0.0042
      8  CD2       54.2340   79.6920    2.3300 C.ar   13  PHE13      -0.0042
      9  CE1       53.5270   77.2410    1.2800 C.ar   13  PHE13      -0.0003
     10  CE2       54.0810   78.5970    3.1730 C.ar   13  PHE13      -0.0003
     11  CZ        53.7350   77.3740    2.6580 C.ar   13  PHE13      -0.0000
     12  N         58.6740   71.7740   -0.8600 N.3    62  LYS62      -0.1245
     13  CA        57.9790   71.2320   -2.0180 C.3    62  LYS62       0.1561
     14  C         57.5000   72.3710   -2.8970 C.2    62  LYS62       0.2260
     15  O         57.8460   73.5320   -2.6500 O.2    62  LYS62      -0.2867
     16  CB        56.7600   70.4710   -1.5470 C.3    62  LYS62       0.0271
     17  CG        55.7400   71.3000   -0.7780 C.3    62  LYS62       0.0035
     18  CD        54.6680   70.3480   -0.2030 C.3    62  LYS62       0.0206
     19  CE        53.6710   70.9930    0.7720 C.3    62  LYS62       0.1093
     20  NZ        52.4910   71.6470    0.1040 N.3    62  LYS62      -0.1314
     21  N         53.7290   73.4730   -4.8940 N.3    64  ILE64      -0.1245
     22  CA        52.2990   73.1400   -4.8920 C.3    64  ILE64       0.1561
     23  C         51.8070   73.7280   -6.2130 C.2    64  ILE64       0.2260
     24  O         51.4710   74.9090   -6.2850 O.2    64  ILE64      -0.2867
     25  CB        51.5590   73.8330   -3.7320 C.3    64  ILE64       0.0252
     26  CG1       52.3340   73.6610   -2.4350 C.3    64  ILE64       0.0019
     27  CG2       50.1640   73.2760   -3.5870 C.3    64  ILE64       0.0019
     28  CD1       52.1110   74.8150   -1.5040 C.3    64  ILE64       0.0001
     29  N         57.8170   76.2670   -2.3370 N.3    69  MET69      -0.1245
     30  CA        57.9020   76.4210   -0.9000 C.3    69  MET69       0.1570
     31  C         59.3040   76.0660   -0.4240 C.2    69  MET69       0.2261
     32  O         59.8080   74.9780   -0.7110 O.2    69  MET69      -0.2867
     33  CB        56.8700   75.5480   -0.2080 C.3    69  MET69       0.0387
     34  CG        56.6820   75.8790    1.2650 C.3    69  MET69       0.0595
     35  SD        55.7720   74.6160    2.1680 S.3    69  MET69      -0.1393
     36  CE        54.5750   74.1790    1.0670 C.3    69  MET69       0.0692
     37  N         56.6760   67.8560    5.6500 N.3   134  ASP134     -0.1225
     38  CA        56.3240   69.2740    5.5800 C.3   134  ASP134      0.1805
     39  C         56.8690   70.1100    6.6580 C.2   134  ASP134      0.2598
     40  O         57.8220   69.7860    7.3420 O.2   134  ASP134     -0.2718
     41  CB        54.8570   69.6110    5.6040 C.3   134  ASP134      0.1424
     42  CG        54.4600   70.6420    4.4820 C.2   134  ASP134      0.3668
     43  OD1       55.3370   71.3570    3.9590 O.co2 134  ASP134     -0.2456
     44  OD2       53.2690   70.7180    4.0990 O.co2 134  ASP134     -0.2456
     45  N         56.2200   71.2460    6.7550 N.am  135  ILE135     -0.1966
     46  CA        56.5270   72.2330    7.7100 C.3   135  ILE135      0.1727
     47  C         55.0950   72.6270    8.0210 C.2   135  ILE135      0.2616
     48  O         54.3730   73.0890    7.1450 O.2   135  ILE135     -0.2715
     49  CB        57.2970   73.3360    7.0070 C.3   135  ILE135      0.0290
     50  CG1       58.6260   72.7900    6.5070 C.3   135  ILE135      0.0022
     51  CG2       57.5280   74.4850    7.9020 C.3   135  ILE135      0.0023
     52  CD1       59.4600   72.1160    7.5640 C.3   135  ILE135      0.0001
     53  N         54.6360   72.2820    9.2180 N.am  136  TRP136     -0.1960
     54  CA        53.2760   72.5820    9.6360 C.3   136  TRP136      0.1771
     55  C         53.3360   73.6700   10.6630 C.2   136  TRP136      0.2620
     56  O         54.3970   73.9360   11.2180 O.2   136  TRP136     -0.2715
     57  CB        52.6500   71.3580   10.2650 C.3   136  TRP136      0.0590
     58  CG        52.7620   70.1280    9.4380 C.ar  136  TRP136      0.0006
     59  CD1       53.7900   69.2240    9.4330 C.ar  136  TRP136      0.0946
     60  CD2       51.7770   69.6250    8.5430 C.ar  136  TRP136      0.0152
     61  NE1       53.4940   68.1840    8.5930 N.ar  136  TRP136     -0.2442
     62  CE2       52.2640   68.4050    8.0310 C.ar  136  TRP136      0.0810
     63  CE3       50.5230   70.0860    8.1240 C.ar  136  TRP136      0.0012
     64  CZ2       51.5450   67.6440    7.1210 C.ar  136  TRP136      0.0191
     65  CZ3       49.8060   69.3330    7.2220 C.ar  136  TRP136      0.0001
     66  CH2       50.3170   68.1210    6.7250 C.ar  136  TRP136      0.0015
     67  N         52.2170   74.3300   10.9020 N.am  137  GLY137     -0.1954
     68  CA        52.2470   75.3620   11.9070 C.3   137  GLY137      0.1869
     69  C         51.5290   76.6190   11.5220 C.2   137  GLY137      0.2309
     70  O         50.8920   76.6620   10.4770 O.2   137  GLY137     -0.2863
     71  N         53.7620   78.9930    9.2130 N.3   140  VAL140     -0.1231
     72  CA        53.6550   78.5020    7.8580 C.3   140  VAL140      0.1692
     73  C         52.3670   78.9860    7.2150 C.2   140  VAL140      0.2592
     74  O         52.3960   79.5430    6.1150 O.2   140  VAL140     -0.2718
     75  CB        53.7180   76.9920    7.7810 C.3   140  VAL140      0.0266
     76  CG1       53.3260   76.5560    6.4010 C.3   140  VAL140      0.0020
     77  CG2       55.1070   76.5440    7.9900 C.3   140  VAL140      0.0020
     78  N         51.2400   78.7590    7.8810 N.am  141  ASN141     -0.1974
     79  CA        49.9720   79.2170    7.3400 C.3   141  ASN141      0.1688
     80  C         49.9960   80.7410    7.1620 C.2   141  ASN141      0.2292
     81  O         49.2700   81.2730    6.3200 O.2   141  ASN141     -0.2864
     82  CB        48.7920   78.7780    8.2140 C.3   141  ASN141      0.1181
     83  CG        47.4920   79.4220    7.7870 C.2   141  ASN141      0.2629
     84  OD1       46.7060   78.8500    7.0270 O.2   141  ASN141     -0.2716
     85  ND2       47.2780   80.6470    8.2410 N.am  141  ASN141     -0.0877
     86  N         52.2490   81.4760    4.1050 N.3   144  SER144     -0.1217
     87  CA        51.3490   81.2370    3.0010 C.3   144  SER144      0.1889
     88  C         50.3730   82.3930    2.8240 C.2   144  SER144      0.2288
     89  O         50.1620   82.8600    1.7140 O.2   144  SER144     -0.2866
     90  CB        50.5630   79.9500    3.2240 C.3   144  SER144      0.2089
     91  OG        49.4370   79.9040    2.3640 O.3   144  SER144     -0.2183
@<TRIPOS>BOND
     1    24    23    2
     2    23    22    1
     3    21    22    1
     4    22    25    1
     5    25    27    1
     6    25    26    1
     7    14    15    2
     8    14    13    1
     9    26    28    1
    10    29    30    1
    11    13    16    1
    12    13    12    1
    13     3     4    2
    14     3     2    1
    15    16    17    1
    16    30    31    1
    17    30    33    1
    18    17    18    1
    19    32    31    2
    20     2     5    1
    21     2     1    1
    22    33    34    1
    23    18    19    1
    24     5     6    1
    25    20    19    1
    26     7     6   ar
    27     7     9   ar
    28     6     8   ar
    29    36    35    1
    30    34    35    1
    31     9    11   ar
    32    89    88    2
    33     8    10   ar
    34    91    90    1
    35    11    10   ar
    36    88    87    1
    37    87    90    1
    38    87    86    1
    39    43    42   ar
    40    44    42   ar
    41    42    41    1
    42    38    41    1
    43    38    37    1
    44    38    39    1
    45    74    73    2
    46    81    80    2
    47    76    75    1
    48    50    49    1
    49    50    52    1
    50    39    45   am
    51    39    40    2
    52    66    64   ar
    53    66    65   ar
    54    45    46    1
    55    49    46    1
    56    49    51    1
    57    84    83    2
    58    64    62   ar
    59    48    47    2
    60    80    79    1
    61    73    72    1
    62    73    78   am
    63    65    63   ar
    64    79    78    1
    65    79    82    1
    66    46    47    1
    67    75    72    1
    68    75    77    1
    69    83    82    1
    70    83    85   am
    71    72    71    1
    72    47    53   am
    73    62    60   ar
    74    62    61   ar
    75    63    60   ar
    76    60    58   ar
    77    61    59   ar
    78    53    54    1
    79    59    58   ar
    80    58    57    1
    81    54    57    1
    82    54    55    1
    83    70    69    2
    84    55    67   am
    85    55    56    2
    86    67    68    1
    87    69    68    1
