@<TRIPOS>MOLECULE
tmp/1ab9C00.pdb
 138 138 0 0 0
SMALL
GASTEIGER

@<TRIPOS>ATOM
      1  N         33.2330   11.1880   50.5520 N.3    23  TRP23      -0.1241
      2  CA        34.1820   10.6140   49.6120 C.3    23  TRP23       0.1605
      3  C         35.6050   11.1510   49.5410 C.2    23  TRP23       0.2264
      4  O         36.4230   10.6310   48.7750 O.2    23  TRP23      -0.2867
      5  CB        33.5540   10.6290   48.2170 C.3    23  TRP23       0.0550
      6  CG        32.3070    9.8040   48.1310 C.ar   23  TRP23       0.0003
      7  CD1       31.0370   10.2450   47.8720 C.ar   23  TRP23       0.0946
      8  CD2       32.2150    8.3850   48.2840 C.ar   23  TRP23       0.0152
      9  NE1       30.1610    9.1840   47.8550 N.ar   23  TRP23      -0.2442
     10  CE2       30.8540    8.0370   48.1080 C.ar   23  TRP23       0.0810
     11  CE3       33.1480    7.3790   48.5620 C.ar   23  TRP23       0.0012
     12  CZ2       30.4110    6.7160   48.1870 C.ar   23  TRP23       0.0191
     13  CZ3       32.7060    6.0650   48.6430 C.ar   23  TRP23       0.0001
     14  CH2       31.3440    5.7470   48.4600 C.ar   23  TRP23       0.0015
     15  N         38.3760   11.7870   46.2730 N.3    26  LYS26      -0.1245
     16  CA        37.9240   11.0610   45.0940 C.3    26  LYS26       0.1561
     17  C         36.9690   11.9180   44.2710 C.2    26  LYS26       0.2260
     18  O         36.7830   11.6810   43.0780 O.2    26  LYS26      -0.2867
     19  CB        37.2590    9.7470   45.4940 C.3    26  LYS26       0.0271
     20  CG        38.1950    8.8170   46.2350 C.3    26  LYS26       0.0035
     21  CD        37.4880    7.5690   46.7040 C.3    26  LYS26       0.0206
     22  CE        37.4730    6.4900   45.6380 C.3    26  LYS26       0.1093
     23  NZ        38.8490    6.1630   45.1800 N.3    26  LYS26      -0.1314
     24  N         19.0620    5.5710   46.1960 N.3    40  SER40      -0.1202
     25  CA        20.4020    5.4660   45.6400 C.3    40  SER40       0.2020
     26  C         20.4480    4.8150   44.2610 C.2    40  SER40       0.2619
     27  O         19.6870    3.8920   43.9690 O.2    40  SER40      -0.2717
     28  CB        21.2930    4.6580   46.5870 C.3    40  SER40       0.2103
     29  OG        22.6250    4.5930   46.1250 O.3    40  SER40      -0.2182
     30  N         21.2970    5.3400   43.3910 N.am   41  SER41      -0.1937
     31  CA        21.4880    4.7190   42.0880 C.3    41  SER41       0.2055
     32  C         22.2750    3.4600   42.4610 C.2    41  SER41       0.2643
     33  O         22.8050    3.3660   43.5760 O.2    41  SER41      -0.2714
     34  CB        22.3040    5.6300   41.1850 C.3    41  SER41       0.2130
     35  OG        21.5490    6.7770   40.8630 O.3    41  SER41      -0.2179
     36  N         22.3600    2.4880   41.5700 N.am   42  CYS42      -0.1953
     37  CA        23.0680    1.2610   41.9180 C.3    42  CYS42       0.1843
     38  C         23.6000    0.5970   40.6500 C.2    42  CYS42       0.2625
     39  O         23.4090    1.1270   39.5450 O.2    42  CYS42      -0.2714
     40  CB        22.1070    0.3420   42.6860 C.3    42  CYS42       0.0997
     41  SG        22.8240   -1.0180   43.6810 S.3    42  CYS42      -0.0797
     42  N         24.2860   -0.5360   40.7990 N.am   43  MET43      -0.1963
     43  CA        24.8380   -1.2370   39.6350 C.3    43  MET43       0.1736
     44  C         23.7670   -1.4290   38.5600 C.2    43  MET43       0.2617
     45  O         22.6390   -1.8380   38.8600 O.2    43  MET43      -0.2715
     46  CB        25.4610   -2.5850   40.0370 C.3    43  MET43       0.0427
     47  CG        26.7710   -2.4730   40.8060 C.3    43  MET43       0.0599
     48  SD        26.6120   -1.8230   42.4920 S.3    43  MET43      -0.1393
     49  CE        26.0280   -3.2420   43.3160 C.3    43  MET43       0.0692
     50  N         24.1170   -1.1030   37.3190 N.am   44  GLY44      -0.1955
     51  CA        23.1700   -1.2190   36.2210 C.3    44  GLY44       0.1869
     52  C         22.5520    0.1220   35.8410 C.2    44  GLY44       0.2309
     53  O         21.9900    0.2680   34.7540 O.2    44  GLY44      -0.2863
     54  N         24.4140    2.8420   35.8830 N.3    46  SER46      -0.1217
     55  CA        25.5410    3.5380   35.2520 C.3    46  SER46       0.1889
     56  C         25.2440    3.9800   33.8410 C.2    46  SER46       0.2288
     57  O         24.6520    3.2250   33.0830 O.2    46  SER46      -0.2866
     58  CB        26.8020    2.6440   35.2400 C.3    46  SER46       0.2089
     59  OG        27.4270    2.6000   36.5070 O.3    46  SER46      -0.2183
     60  N         24.9470    8.8260   35.6460 N.3    64  VAL64      -0.1231
     61  CA        25.2540    7.9070   36.7470 C.3    64  VAL64       0.1692
     62  C         26.6540    7.3180   36.5460 C.2    64  VAL64       0.2593
     63  O         26.9410    6.6960   35.5110 O.2    64  VAL64      -0.2718
     64  CB        24.2150    6.7730   36.8510 C.3    64  VAL64       0.0266
     65  CG1       24.4950    5.9230   38.0810 C.3    64  VAL64       0.0020
     66  CG2       22.7950    7.3520   36.8960 C.3    64  VAL64       0.0020
     67  N         27.4990    7.4760   37.5560 N.am   65  SER65      -0.1938
     68  CA        28.8690    7.0180   37.4660 C.3    65  SER65       0.2055
     69  C         29.2770    5.9690   38.4920 C.2    65  SER65       0.2643
     70  O         29.4550    4.7950   38.1430 O.2    65  SER65      -0.2714
     71  CB        29.8000    8.2270   37.5270 C.3    65  SER65       0.2130
     72  OG        31.1410    7.8580   37.2810 O.3    65  SER65      -0.2179
     73  N         29.3890    6.3690   39.7540 N.am   66  TRP66      -0.1959
     74  CA        29.8030    5.4540   40.8180 C.3    66  TRP66       0.1771
     75  C         29.2720    5.8790   42.1900 C.2    66  TRP66       0.2620
     76  O         28.6020    6.8990   42.3080 O.2    66  TRP66      -0.2715
     77  CB        31.3340    5.3580   40.8580 C.3    66  TRP66       0.0590
     78  CG        32.0490    6.6550   41.1330 C.ar   66  TRP66       0.0006
     79  CD1       32.3940    7.6020   40.2140 C.ar   66  TRP66       0.0946
     80  CD2       32.5650    7.1180   42.3950 C.ar   66  TRP66       0.0152
     81  NE1       33.0970    8.6170   40.8150 N.ar   66  TRP66      -0.2442
     82  CE2       33.2230    8.3450   42.1610 C.ar   66  TRP66       0.0810
     83  CE3       32.5490    6.6090   43.7070 C.ar   66  TRP66       0.0012
     84  CZ2       33.8530    9.0820   43.1670 C.ar   66  TRP66       0.0191
     85  CZ3       33.1810    7.3440   44.7260 C.ar   66  TRP66       0.0001
     86  CH2       33.8250    8.5650   44.4430 C.ar   66  TRP66       0.0015
     87  N         29.5550    5.0880   43.2190 N.am   67  GLY67      -0.1940
     88  CA        29.0920    5.4100   44.5590 C.3    67  GLY67       0.2014
     89  C         29.4220    4.3040   45.5350 C.2    67  GLY67       0.2640
     90  O         30.4590    3.6710   45.4140 O.2    67  GLY67      -0.2714
     91  N         28.5440    4.0730   46.5010 N.am   68  SER68      -0.1935
     92  CA        28.7220    3.0270   47.5020 C.3    68  SER68       0.2055
     93  C         28.6430    1.6430   46.8410 C.2    68  SER68       0.2644
     94  O         27.7590    1.3890   46.0170 O.2    68  SER68      -0.2714
     95  CB        27.6330    3.1770   48.5730 C.3    68  SER68       0.2130
     96  OG        27.4610    2.0010   49.3470 O.3    68  SER68      -0.2179
     97  N         29.5530    0.7450   47.2050 N.am   69  SER69      -0.1935
     98  CA        29.5660   -0.6080   46.6530 C.3    69  SER69       0.2055
     99  C         28.3110   -1.3920   47.0620 C.2    69  SER69       0.2644
    100  O         27.9620   -2.3860   46.4210 O.2    69  SER69      -0.2714
    101  CB        30.8090   -1.3610   47.1210 C.3    69  SER69       0.2130
    102  OG        30.8780   -1.3700   48.5350 O.3    69  SER69      -0.2179
    103  N         27.6420   -0.9440   48.1230 N.am   70  THR70      -0.1936
    104  CA        26.4250   -1.6020   48.6020 C.3    70  THR70       0.2028
    105  C         25.1860   -0.7430   48.3270 C.2    70  THR70       0.2642
    106  O         24.0900   -1.0340   48.8140 O.2    70  THR70      -0.2714
    107  CB        26.5020   -1.8960   50.1160 C.3    70  THR70       0.1808
    108  OG1       26.6240   -0.6640   50.8440 O.3    70  THR70      -0.2208
    109  CG2       27.7070   -2.7910   50.4200 C.3    70  THR70       0.0379
    110  N         25.3760    0.3280   47.5650 N.am   71  CYS71      -0.1967
    111  CA        24.2860    1.2390   47.2180 C.3    71  CYS71       0.1712
    112  C         23.5400    1.7450   48.4540 C.2    71  CYS71       0.2296
    113  O         22.3080    1.7570   48.4980 O.2    71  CYS71      -0.2864
    114  CB        23.3330    0.5500   46.2460 C.3    71  CYS71       0.0983
    115  SG        24.2480   -0.1330   44.8310 S.3    71  CYS71      -0.0798
    116  N         25.4320    9.3780   45.8030 N.3    77  GLY77      -0.1210
    117  CA        25.9250    8.7400   44.6030 C.3    77  GLY77       0.1956
    118  C         26.7340    9.8030   43.8900 C.2    77  GLY77       0.2612
    119  O         26.5350   11.0020   44.1240 O.2    77  GLY77      -0.2717
    120  N         27.6240    9.3780   43.0040 N.am   78  VAL78      -0.1965
    121  CA        28.4630   10.3080   42.2630 C.3    78  VAL78       0.1727
    122  C         28.1330   10.1840   40.7800 C.2    78  VAL78       0.2616
    123  O         28.0740    9.0800   40.2250 O.2    78  VAL78      -0.2715
    124  CB        29.9700   10.0440   42.5220 C.3    78  VAL78       0.0290
    125  CG1       30.8110   11.1280   41.8750 C.3    78  VAL78       0.0023
    126  CG2       30.2450    9.9750   44.0330 C.3    78  VAL78       0.0023
    127  N         27.8950   11.3330   40.1600 N.am   79  TYR79      -0.1974
    128  CA        27.5260   11.4270   38.7550 C.3    79  TYR79       0.1639
    129  C         28.5070   12.3060   37.9880 C.2    79  TYR79       0.2290
    130  O         29.1480   13.1800   38.5640 O.2    79  TYR79      -0.2864
    131  CB        26.1150   12.0470   38.6380 C.3    79  TYR79       0.0560
    132  CG        25.0560   11.3410   39.4650 C.ar   79  TYR79      -0.0198
    133  CD1       25.0670   11.4130   40.8530 C.ar   79  TYR79      -0.0009
    134  CD2       24.0880   10.5420   38.8560 C.ar   79  TYR79      -0.0009
    135  CE1       24.1510   10.7040   41.6160 C.ar   79  TYR79       0.0417
    136  CE2       23.1640    9.8290   39.6110 C.ar   79  TYR79       0.0417
    137  CZ        23.2090    9.9100   40.9940 C.ar   79  TYR79       0.1957
    138  OH        22.3310    9.1720   41.7550 O.3    79  TYR79      -0.2866
@<TRIPOS>BOND
     1    57    56    2
     2    56    55    1
     3    53    52    2
     4    58    55    1
     5    58    59    1
     6    55    54    1
     7    63    62    2
     8    60    61    1
     9    52    51    1
    10    51    50    1
    11    62    61    1
    12    62    67   am
    13    61    64    1
    14    64    66    1
    15    64    65    1
    16    72    71    1
    17    50    44   am
    18    68    71    1
    19    68    67    1
    20    68    69    1
    21   129   130    2
    22   129   128    1
    23    70    69    2
    24    69    73   am
    25    44    45    2
    26    44    43    1
    27   131   128    1
    28   131   132    1
    29   128   127    1
    30   134   132   ar
    31   134   136   ar
    32   132   133   ar
    33    39    38    2
    34   136   137   ar
    35    43    46    1
    36    43    42    1
    37    73    74    1
    38    46    47    1
    39   127   122   am
    40    79    81   ar
    41    79    78   ar
    42   123   122    2
    43    38    42   am
    44    38    37    1
    45   122   121    1
    46    47    48    1
    47    81    82   ar
    48    74    77    1
    49    74    75    1
    50   133   135   ar
    51    77    78    1
    52    35    34    1
    53   137   135   ar
    54   137   138    1
    55    78    80   ar
    56    34    31    1
    57    36    37    1
    58    36    32   am
    59   125   124    1
    60    37    40    1
    61    31    32    1
    62    31    30    1
    63    82    80   ar
    64    82    84   ar
    65    75    76    2
    66    75    87   am
    67   121   124    1
    68   121   120    1
    69    80    83   ar
    70    32    33    2
    71    48    49    1
    72   124   126    1
    73    40    41    1
    74   120   118   am
    75    18    17    2
    76    84    86   ar
    77    87    88    1
    78    30    26   am
    79    41   115    1
    80    83    85   ar
    81   118   119    2
    82   118   117    1
    83    27    26    2
    84    26    25    1
    85    17    16    1
    86    86    85   ar
    87    88    89    1
    88   117   116    1
    89   115   114    1
    90    16    19    1
    91    16    15    1
    92    23    22    1
    93    90    89    2
    94    19    20    1
    95    89    91   am
    96    22    21    1
    97    25    24    1
    98    25    28    1
    99    94    93    2
   100    29    28    1
   101    20    21    1
   102   114   111    1
   103   100    99    2
   104    91    92    1
   105    98    99    1
   106    98   101    1
   107    98    97    1
   108    93    97   am
   109    93    92    1
   110    99   103   am
   111   101   102    1
   112   111   110    1
   113   111   112    1
   114    92    95    1
   115   110   105   am
   116     9     7   ar
   117     9    10   ar
   118     7     6   ar
   119    10    12   ar
   120    10     8   ar
   121   103   104    1
   122     6     5    1
   123     6     8   ar
   124    12    14   ar
   125     5     2    1
   126     8    11   ar
   127   105   104    1
   128   105   106    2
   129   112   113    2
   130    14    13   ar
   131    11    13   ar
   132    95    96    1
   133   104   107    1
   134     4     3    2
   135     3     2    1
   136     2     1    1
   137   107   109    1
   138   107   108    1
