@<TRIPOS>MOLECULE
tmp/1abaA00.pdb
 89 84 0 0 0
SMALL
GASTEIGER

@<TRIPOS>ATOM
      1  N          2.4420   50.5070   56.8620 N.3     7  TYR7       -0.1241
      2  CA         1.4130   51.5060   57.1190 C.3     7  TYR7        0.1605
      3  C          1.6700   52.1190   58.4610 C.2     7  TYR7        0.2264
      4  O          2.0840   51.4170   59.3780 O.2     7  TYR7       -0.2867
      5  CB         0.0050   50.9270   57.2320 C.3     7  TYR7        0.0534
      6  CG        -0.5210   50.2370   56.0010 C.ar    7  TYR7       -0.0201
      7  CD1       -0.9850   51.0110   54.9510 C.ar    7  TYR7       -0.0009
      8  CD2       -0.5690   48.8540   55.9360 C.ar    7  TYR7       -0.0009
      9  CE1       -1.5020   50.3870   53.8350 C.ar    7  TYR7        0.0417
     10  CE2       -1.0860   48.2220   54.8170 C.ar    7  TYR7        0.0417
     11  CZ        -1.5490   49.0030   53.7790 C.ar    7  TYR7        0.1957
     12  OH        -2.1060   48.4060   52.6640 O.3     7  TYR7       -0.2866
     13  N         -3.7640   53.5130   59.1440 N.3    12  HIS12      -0.1241
     14  CA        -4.3230   52.2420   58.7340 C.3    12  HIS12       0.1621
     15  C         -3.6810   51.2150   59.6410 C.2    12  HIS12       0.2264
     16  O         -2.4690   51.0060   59.5890 O.2    12  HIS12      -0.2867
     17  CB        -3.9620   52.0080   57.2960 C.3    12  HIS12       0.0745
     18  CG        -4.6350   50.8010   56.6690 C.ar   12  HIS12       0.0817
     19  ND1       -5.6960   50.8090   55.8720 N.ar   12  HIS12      -0.2268
     20  CD2       -4.1760   49.5120   56.7260 C.ar   12  HIS12       0.1154
     21  CE1       -5.8950   49.5940   55.4230 C.ar   12  HIS12       0.1986
     22  NE2       -4.9760   48.8330   55.9430 N.ar   12  HIS12      -0.2212
     23  N          3.3580   53.6970   53.1430 N.3    36  ILE36      -0.1245
     24  CA         2.8130   53.7180   51.7880 C.3    36  ILE36       0.1561
     25  C          1.4150   54.3430   51.7250 C.2    36  ILE36       0.2260
     26  O          0.8460   54.4900   50.6390 O.2    36  ILE36      -0.2867
     27  CB         2.7650   52.2630   51.1540 C.3    36  ILE36       0.0252
     28  CG1        1.8540   51.3140   51.9710 C.3    36  ILE36       0.0019
     29  CG2        4.2220   51.7530   51.0180 C.3    36  ILE36       0.0019
     30  CD1        1.5520   49.9570   51.2750 C.3    36  ILE36       0.0001
     31  N         -2.9810   55.9330   48.6500 N.3    43  PHE43      -0.1241
     32  CA        -1.6940   55.2760   48.5030 C.3    43  PHE43       0.1605
     33  C         -0.6890   56.1780   47.8330 C.2    43  PHE43       0.2264
     34  O         -1.0070   57.0310   46.9860 O.2    43  PHE43      -0.2867
     35  CB        -1.8070   54.0270   47.6540 C.3    43  PHE43       0.0534
     36  CG        -2.4480   52.9080   48.4470 C.ar   43  PHE43      -0.0203
     37  CD1       -1.6740   52.1480   49.3130 C.ar   43  PHE43      -0.0042
     38  CD2       -3.7930   52.6370   48.2930 C.ar   43  PHE43      -0.0042
     39  CE1       -2.2460   51.1090   50.0220 C.ar   43  PHE43      -0.0003
     40  CE2       -4.3590   51.5920   49.0090 C.ar   43  PHE43      -0.0003
     41  CZ        -3.5850   50.8280   49.8700 C.ar   43  PHE43      -0.0000
     42  N          4.9540   52.5440   46.1470 N.3    48  ILE48      -0.1245
     43  CA         4.5740   51.1750   45.7670 C.3    48  ILE48       0.1561
     44  C          5.4000   50.7680   44.5480 C.2    48  ILE48       0.2260
     45  O          5.9350   49.6530   44.5540 O.2    48  ILE48      -0.2867
     46  CB         3.0360   51.0920   45.4670 C.3    48  ILE48       0.0252
     47  CG1        2.2860   51.4330   46.7770 C.3    48  ILE48       0.0019
     48  CG2        2.6040   49.6850   45.0230 C.3    48  ILE48       0.0019
     49  CD1        0.7730   51.6610   46.6390 C.3    48  ILE48       0.0001
     50  N          8.7960   49.8030   45.7570 N.3    51  LEU51      -0.1245
     51  CA         8.7720   48.5080   46.4020 C.3    51  LEU51       0.1561
     52  C          8.7580   47.3830   45.3750 C.2    51  LEU51       0.2260
     53  O          9.5440   46.4360   45.4730 O.2    51  LEU51      -0.2867
     54  CB         7.5450   48.3990   47.2960 C.3    51  LEU51       0.0270
     55  CG         7.3240   47.0810   48.0780 C.3    51  LEU51       0.0019
     56  CD1        8.5100   46.7030   48.9710 C.3    51  LEU51       0.0001
     57  CD2        6.0910   47.2810   48.9270 C.3    51  LEU51       0.0001
     58  N          0.9230   42.5870   42.2170 N.3    60  GLN60      -0.1245
     59  CA         0.8600   42.8410   43.6470 C.3    60  GLN60       0.1566
     60  C          0.1910   41.6960   44.3920 C.2    60  GLN60       0.2260
     61  O         -0.0200   41.7550   45.6060 O.2    60  GLN60      -0.2867
     62  CB         0.0830   44.1380   43.8920 C.3    60  GLN60       0.0367
     63  CG         0.7520   45.3820   43.3430 C.3    60  GLN60       0.0905
     64  CD        -0.2000   46.5710   43.3800 C.2    60  GLN60       0.2608
     65  OE1       -1.1050   46.7210   42.5520 O.2    60  GLN60      -0.2717
     66  NE2       -0.0540   47.4280   44.3720 N.am   60  GLN60      -0.0878
     67  N          0.8590   40.3360   48.1320 N.3    63  LEU63      -0.1231
     68  CA         1.7320   41.1900   48.9020 C.3    63  LEU63       0.1693
     69  C          1.0340   41.7760   50.1210 C.2    63  LEU63       0.2593
     70  O         -0.0310   42.4070   50.0020 O.2    63  LEU63      -0.2718
     71  CB         2.2160   42.3320   48.0290 C.3    63  LEU63       0.0284
     72  CG         3.4070   42.9980   47.3840 C.3    63  LEU63       0.0019
     73  CD1        3.0930   44.4470   47.0040 C.3    63  LEU63       0.0001
     74  CD2        4.5420   42.9270   48.3870 C.3    63  LEU63       0.0001
     75  N          1.6090   41.5650   51.2850 N.am   64  THR64      -0.1939
     76  CA         1.0980   42.1520   52.5020 C.3    64  THR64       0.2028
     77  C          2.1970   43.0200   53.1280 C.2    64  THR64       0.2642
     78  O          3.3680   42.9910   52.7320 O.2    64  THR64      -0.2714
     79  CB         0.6780   41.0610   53.4940 C.3    64  THR64       0.1808
     80  OG1        1.8050   40.1990   53.6780 O.3    64  THR64      -0.2208
     81  CG2       -0.5250   40.2710   53.0050 C.3    64  THR64       0.0379
     82  N          1.7610   43.9220   53.9950 N.am   65  MET65      -0.1976
     83  CA         2.6690   44.7820   54.7210 C.3    65  MET65       0.1605
     84  C          2.8990   44.2000   56.1100 C.2    65  MET65       0.2287
     85  O          1.9500   43.6870   56.7060 O.2    65  MET65      -0.2864
     86  CB         2.0710   46.1900   54.8460 C.3    65  MET65       0.0413
     87  CG         1.9670   46.8940   53.5010 C.3    65  MET65       0.0598
     88  SD         3.5770   47.1230   52.6820 S.3    65  MET65      -0.1393
     89  CE         3.1940   46.2900   51.1740 C.3    65  MET65       0.0692
@<TRIPOS>BOND
     1    58    59    1
     2    65    64    2
     3    63    64    1
     4    63    62    1
     5    64    66   am
     6    59    62    1
     7    59    60    1
     8    60    61    2
     9    44    45    2
    10    44    43    1
    11    48    46    1
    12    52    53    2
    13    52    51    1
    14    46    43    1
    15    46    47    1
    16    50    51    1
    17    43    42    1
    18    51    54    1
    19    49    47    1
    20    34    33    2
    21    73    72    1
    22    54    55    1
    23    72    71    1
    24    72    74    1
    25    35    36    1
    26    35    32    1
    27    33    32    1
    28    71    68    1
    29    55    57    1
    30    55    56    1
    31    67    68    1
    32    38    36   ar
    33    38    40   ar
    34    36    37   ar
    35    32    31    1
    36    68    69    1
    37    40    41   ar
    38    37    39   ar
    39    41    39   ar
    40    70    69    2
    41    69    75   am
    42    26    25    2
    43    29    27    1
    44    27    24    1
    45    27    28    1
    46    89    88    1
    47    30    28    1
    48    75    76    1
    49    25    24    1
    50    24    23    1
    51    76    77    1
    52    76    79    1
    53    12    11    1
    54    88    87    1
    55    78    77    2
    56    81    79    1
    57    77    82   am
    58    79    80    1
    59    87    86    1
    60    11     9   ar
    61    11    10   ar
    62     9     7   ar
    63    82    83    1
    64    83    86    1
    65    83    84    1
    66    10     8   ar
    67     7     6   ar
    68    21    19   ar
    69    21    22   ar
    70    19    18   ar
    71     8     6   ar
    72    22    20   ar
    73     6     5    1
    74    84    85    2
    75    18    20   ar
    76    18    17    1
    77     1     2    1
    78     2     5    1
    79     2     3    1
    80    17    14    1
    81     3     4    2
    82    14    13    1
    83    14    15    1
    84    16    15    2
