@<TRIPOS>MOLECULE
tmp/1abbD01.pdb
 165 158 0 0 0
SMALL
GASTEIGER

@<TRIPOS>ATOM
      1  N         67.5380   50.3500   17.3130 N.3    81  TYR81      -0.1241
      2  CA        68.1200   49.6470   16.2000 C.3    81  TYR81       0.1605
      3  C         69.1600   50.4510   15.4950 C.2    81  TYR81       0.2264
      4  O         69.2070   50.4110   14.2800 O.2    81  TYR81      -0.2867
      5  CB        66.9910   49.3110   15.2710 C.3    81  TYR81       0.0534
      6  CG        67.0830   48.0350   14.4900 C.ar   81  TYR81      -0.0201
      7  CD1       68.1960   47.2480   14.5150 C.ar   81  TYR81      -0.0009
      8  CD2       65.9840   47.6970   13.7770 C.ar   81  TYR81      -0.0009
      9  CE1       68.1850   46.0880   13.8030 C.ar   81  TYR81       0.0417
     10  CE2       65.9710   46.5350   13.0690 C.ar   81  TYR81       0.0417
     11  CZ        67.0670   45.7350   13.0850 C.ar   81  TYR81       0.1957
     12  OH        67.0200   44.5590   12.3600 O.3    81  TYR81      -0.2866
     13  N         65.9990   44.7940   16.5850 N.3   124  ASN124     -0.1225
     14  CA        65.5750   43.5980   15.8720 C.3   124  ASN124      0.1785
     15  C         64.5890   44.0520   14.8070 C.2   124  ASN124      0.2598
     16  O         64.6160   43.4800   13.7120 O.2   124  ASN124     -0.2718
     17  CB        64.8540   42.5690   16.7920 C.3   124  ASN124      0.1169
     18  CG        64.0850   41.4840   16.0520 C.2   124  ASN124      0.2627
     19  OD1       64.6820   40.6810   15.3450 O.2   124  ASN124     -0.2716
     20  ND2       62.7590   41.3810   16.1690 N.am  124  ASN124     -0.0877
     21  N         63.7030   45.0210   15.0250 N.am  125  GLY125     -0.1942
     22  CA        62.8280   45.4440   13.9640 C.3   125  GLY125      0.2014
     23  C         62.4440   46.9060   14.0130 C.2   125  GLY125      0.2639
     24  O         63.1530   47.8420   14.4040 O.2   125  GLY125     -0.2714
     25  N         61.1990   47.0120   13.5770 N.am  126  GLY126     -0.1954
     26  CA        60.5220   48.2650   13.3930 C.3   126  GLY126      0.1869
     27  C         60.6480   49.1760   14.5700 C.2   126  GLY126      0.2309
     28  O         61.2600   50.2410   14.4890 O.2   126  GLY126     -0.2863
     29  N         64.1320   50.5570   15.1780 N.3   129  ARG129     -0.1245
     30  CA        64.4400   51.4990   14.1290 C.3   129  ARG129      0.1563
     31  C         63.7280   52.8300   14.3390 C.2   129  ARG129      0.2260
     32  O         64.2470   53.9240   14.0800 O.2   129  ARG129     -0.2867
     33  CB        64.0120   50.9690   12.7960 C.3   129  ARG129      0.0307
     34  CG        64.3350   51.9220   11.6560 C.3   129  ARG129      0.0489
     35  CD        65.7020   51.6970   11.0610 C.3   129  ARG129      0.2205
     36  NE        66.8400   52.2540   11.7770 N.pl3 129  ARG129     -0.0865
     37  CZ        67.0610   53.5500   12.0510 C.cat 129  ARG129      0.5346
     38  NH1       66.1230   54.4560   11.8050 N.pl3 129  ARG129      0.1354
     39  NH2       68.2080   53.8960   12.6760 N.pl3 129  ARG129      0.1354
     40  N         67.9400   58.0160    5.6840 N.3   478  TRP478     -0.1241
     41  CA        67.2600   57.3340    4.6300 C.3   478  TRP478      0.1605
     42  C         67.2630   58.0150    3.2560 C.2   478  TRP478      0.2264
     43  O         66.7310   57.4830    2.2990 O.2   478  TRP478     -0.2867
     44  CB        65.9070   57.0240    5.2770 C.3   478  TRP478      0.0550
     45  CG        66.0720   56.0570    6.4790 C.ar  478  TRP478      0.0003
     46  CD1       65.6080   56.3620    7.7470 C.ar  478  TRP478      0.0946
     47  CD2       66.7230   54.8450    6.4480 C.ar  478  TRP478      0.0152
     48  NE1       65.9790   55.3400    8.4930 N.ar  478  TRP478     -0.2442
     49  CE2       66.6500   54.4390    7.7570 C.ar  478  TRP478      0.0810
     50  CE3       67.1730   53.9680    5.5080 C.ar  478  TRP478      0.0012
     51  CZ2       67.0180   53.1820    8.1720 C.ar  478  TRP478      0.0191
     52  CZ3       67.5370   52.6910    5.9010 C.ar  478  TRP478      0.0001
     53  CH2       67.4720   52.3010    7.2280 C.ar  478  TRP478      0.0015
     54  N         61.2930   43.4360    1.7480 N.3   554  VAL554     -0.1231
     55  CA        62.1670   43.2030    2.8820 C.3   554  VAL554      0.1692
     56  C         61.3730   43.6660    4.1020 C.2   554  VAL554      0.2592
     57  O         61.2820   44.8530    4.4870 O.2   554  VAL554     -0.2718
     58  CB        63.5250   43.9750    2.8360 C.3   554  VAL554      0.0266
     59  CG1       64.3830   42.9550    2.1950 C.3   554  VAL554      0.0020
     60  CG2       63.5740   45.3410    2.1750 C.3   554  VAL554      0.0020
     61  N         60.7320   42.5620    4.5220 N.am  555  LYS555     -0.1966
     62  CA        59.6100   42.5140    5.4730 C.3   555  LYS555      0.1727
     63  C         59.8670   41.3770    6.4580 C.2   555  LYS555      0.2612
     64  O         60.4780   40.3930    6.0100 O.2   555  LYS555     -0.2715
     65  CB        58.2660   42.2510    4.7210 C.3   555  LYS555      0.0311
     66  CG        57.4840   43.4810    4.2000 C.3   555  LYS555      0.0038
     67  CD        57.1820   44.3770    5.3800 C.3   555  LYS555      0.0206
     68  CE        56.4660   45.6860    5.0580 C.3   555  LYS555      0.1093
     69  NZ        56.2190   46.4800    6.2620 N.3   555  LYS555     -0.1314
     70  N         59.5150   41.4450    7.7550 N.am  556  ARG556     -0.2031
     71  CA        59.7300   40.2920    8.6350 C.3   556  ARG556      0.1283
     72  C         59.2010   39.0090    7.9720 C.3   556  ARG556      0.2036
     73  O         58.1100   39.1530    7.3850 O.3   556  ARG556     -0.2185
     74  CB        59.0040   40.6070    9.9050 C.3   556  ARG556      0.0281
     75  CG        59.2610   39.8750   11.2200 C.3   556  ARG556      0.0488
     76  CD        58.3050   40.5410   12.2270 C.3   556  ARG556      0.2205
     77  NE        56.8850   40.2240   12.0350 N.pl3 556  ARG556     -0.0865
     78  CZ        55.9740   40.6520   12.9130 C.cat 556  ARG556      0.5346
     79  NH1       56.3130   41.5400   13.8560 N.pl3 556  ARG556      0.1354
     80  NH2       54.6950   40.2860   12.8220 N.pl3 556  ARG556      0.1354
     81  N         52.7680   38.5900    6.3820 N.3   561  LYS561     -0.1245
     82  CA        53.5350   39.6380    5.7450 C.3   561  LYS561      0.1561
     83  C         53.4530   39.3600    4.2510 C.2   561  LYS561      0.2260
     84  O         53.3630   40.3100    3.4780 O.2   561  LYS561     -0.2867
     85  CB        54.9570   39.6320    6.3170 C.3   561  LYS561      0.0271
     86  CG        55.2700   41.0270    6.8450 C.3   561  LYS561      0.0035
     87  CD        55.1300   41.2300    8.3230 C.3   561  LYS561      0.0206
     88  CE        55.0670   42.7040    8.2480 C.3   561  LYS561      0.1093
     89  NZ        54.5390   43.4780    9.3730 N.3   561  LYS561     -0.1314
     90  N         69.0330   40.3170    6.4190 N.3   635  TYR635     -0.1227
     91  CA        68.6420   41.6730    6.0970 C.3   635  TYR635      0.1736
     92  C         68.7550   42.4200    7.4160 C.2   635  TYR635      0.2595
     93  O         68.5600   41.8080    8.4740 O.2   635  TYR635     -0.2718
     94  CB        67.1790   41.6780    5.4580 C.3   635  TYR635      0.0548
     95  CG        66.5750   43.0750    5.2890 C.ar  635  TYR635     -0.0200
     96  CD1       66.8960   43.9210    4.2270 C.ar  635  TYR635     -0.0009
     97  CD2       65.8270   43.5660    6.3430 C.ar  635  TYR635     -0.0009
     98  CE1       66.4750   45.2520    4.2830 C.ar  635  TYR635      0.0417
     99  CE2       65.4100   44.8750    6.3980 C.ar  635  TYR635      0.0417
    100  CZ        65.7440   45.7220    5.3730 C.ar  635  TYR635      0.1957
    101  OH        65.4030   47.0590    5.4870 O.3   635  TYR635     -0.2866
    102  N         69.2310   43.6560    7.3580 N.am  636  ARG636     -0.1966
    103  CA        69.4580   44.4640    8.5320 C.3   636  ARG636      0.1729
    104  C         69.5820   45.9570    8.2220 C.2   636  ARG636      0.2616
    105  O         69.6570   46.3040    7.0480 O.2   636  ARG636     -0.2715
    106  CB        70.7210   43.8940    9.1350 C.3   636  ARG636      0.0348
    107  CG        72.0120   44.5640    8.7430 C.3   636  ARG636      0.0492
    108  CD        73.1100   43.5810    8.8900 C.3   636  ARG636      0.2205
    109  NE        73.0850   42.6150    7.8310 N.pl3 636  ARG636     -0.0865
    110  CZ        74.0220   42.5690    6.8620 C.cat 636  ARG636      0.5346
    111  NH1       74.9500   43.5340    6.8470 N.pl3 636  ARG636      0.1354
    112  NH2       74.0110   41.5890    5.9100 N.pl3 636  ARG636      0.1354
    113  N         69.8420   46.8630    9.1940 N.am  637  VAL637     -0.1977
    114  CA        69.8090   48.3050    8.8940 C.3   637  VAL637      0.1596
    115  C         70.8980   48.6240    7.8860 C.2   637  VAL637      0.2287
    116  O         70.5590   49.3180    6.9410 O.2   637  VAL637     -0.2864
    117  CB        69.9780   49.2200   10.1900 C.3   637  VAL637      0.0276
    118  CG1       69.8520   50.7010    9.9150 C.3   637  VAL637      0.0022
    119  CG2       68.7920   49.1420   11.0740 C.3   637  VAL637      0.0022
    120  N         69.5360   47.5840    4.5030 N.3   640  ALA640     -0.1245
    121  CA        68.3840   48.4550    4.2780 C.3   640  ALA640      0.1562
    122  C         68.9590   49.5980    3.4460 C.2   640  ALA640      0.2260
    123  O         68.8090   49.5380    2.2120 O.2   640  ALA640     -0.2867
    124  CB        67.8030   49.0720    5.5930 C.3   640  ALA640      0.0290
    125  N         48.4000   45.4360    9.0500 N.3   659  GLU659     -0.1245
    126  CA        49.4170   46.4090    9.3170 C.3   659  GLU659      0.1567
    127  C         48.8800   47.6570    9.9690 C.2   659  GLU659      0.2260
    128  O         47.8510   48.2370    9.6270 O.2   659  GLU659     -0.2867
    129  CB        50.1190   46.7380    8.0120 C.3   659  GLU659      0.0388
    130  CG        50.9260   45.5730    7.5150 C.3   659  GLU659      0.1160
    131  CD        52.3500   45.4640    8.0210 C.2   659  GLU659      0.3649
    132  OE1       52.7430   45.8760    9.1170 O.co2 659  GLU659     -0.2457
    133  OE2       53.1540   44.9090    7.2950 O.co2 659  GLU659     -0.2457
    134  N         53.8910   51.0770    8.5630 N.3   662  GLY662     -0.1210
    135  CA        54.9260   50.7290    7.6220 C.3   662  GLY662      0.1956
    136  C         55.8940   51.9150    7.5280 C.2   662  GLY662      0.2613
    137  O         55.7160   52.8640    6.7660 O.2   662  GLY662     -0.2717
    138  N         56.9300   51.8010    8.3190 N.am  663  THR663     -0.1938
    139  CA        58.0730   52.6580    8.3570 C.3   663  THR663      0.2028
    140  C         58.9300   52.1860    7.2110 C.2   663  THR663      0.2643
    141  O         59.3010   53.0270    6.3960 O.2   663  THR663     -0.2714
    142  CB        58.4770   52.3690    9.7450 C.3   663  THR663      0.1808
    143  OG1       57.8560   53.5440   10.1960 O.3   663  THR663     -0.2208
    144  CG2       59.8910   52.1700   10.2260 C.3   663  THR663      0.0379
    145  N         59.1650   50.9030    6.9840 N.am  664  GLY664     -0.1939
    146  CA        60.0320   50.4990    5.8760 C.3   664  GLY664      0.2014
    147  C         59.6240   50.9680    4.4770 C.2   664  GLY664      0.2638
    148  O         60.4120   51.0420    3.5120 O.2   664  GLY664     -0.2714
    149  N         58.3480   51.3610    4.4720 N.am  665  ASN665     -0.1972
    150  CA        57.5350   51.7810    3.3570 C.3   665  ASN665      0.1688
    151  C         57.8070   53.1980    2.9560 C.2   665  ASN665      0.2292
    152  O         58.0210   53.5170    1.7810 O.2   665  ASN665     -0.2864
    153  CB        56.0640   51.7210    3.6860 C.3   665  ASN665      0.1181
    154  CG        55.4140   50.3770    3.9980 C.2   665  ASN665      0.2629
    155  OD1       55.9910   49.3220    4.3330 O.2   665  ASN665     -0.2716
    156  ND2       54.1040   50.3890    3.8750 N.am  665  ASN665     -0.0877
    157  N         60.4690   54.7330    3.5540 N.3   667  LYS667     -0.1301
    158  CA        61.8520   54.6580    3.1230 C.3   667  LYS667      0.1247
    159  C         61.9320   54.3260    1.6720 C.3   667  LYS667      0.2009
    160  O         62.7560   54.9810    1.0490 O.3   667  LYS667     -0.2188
    161  CB        62.6910   53.5850    3.8230 C.3   667  LYS667      0.0218
    162  CG        63.1910   53.8870    5.2250 C.3   667  LYS667      0.0031
    163  CD        63.6100   52.5410    5.7630 C.3   667  LYS667      0.0205
    164  CE        63.1870   52.4320    7.2070 C.3   667  LYS667      0.1093
    165  NZ        63.3500   51.0560    7.5570 N.3   667  LYS667     -0.1314
@<TRIPOS>BOND
     1   160   159    1
     2   159   158    1
     3    54    55    1
     4   152   151    2
     5    60    58    1
     6    59    58    1
     7   123   122    2
     8    43    42    2
     9    58    55    1
    10    55    56    1
    11   151   150    1
    12   158   157    1
    13   158   161    1
    14    42    41    1
    15   150   153    1
    16   150   149    1
    17   122   121    1
    18    84    83    2
    19   148   147    2
    20   153   154    1
    21   161   162    1
    22   156   154   am
    23   154   155    2
    24    56    57    2
    25    56    61   am
    26    66    65    1
    27    66    67    1
    28    96    98   ar
    29    96    95   ar
    30    83    82    1
    31   121   120    1
    32   121   124    1
    33    98   100   ar
    34   149   147   am
    35   147   146    1
    36    61    62    1
    37    41    44    1
    38    41    40    1
    39    65    62    1
    40    68    67    1
    41    68    69    1
    42   162   163    1
    43    44    45    1
    44    95    94    1
    45    95    97   ar
    46   100   101    1
    47   100    99   ar
    48    94    91    1
    49    62    63    1
    50    50    52   ar
    51    50    47   ar
    52    82    85    1
    53    82    81    1
    54   163   164    1
    55   146   145    1
    56    52    53   ar
    57   112   110    1
    58    64    63    2
    59    91    90    1
    60    91    92    1
    61    85    86    1
    62    97    99   ar
    63   141   140    2
    64    47    45   ar
    65    47    49   ar
    66    63    70   am
    67    45    46   ar
    68   137   136    2
    69    86    87    1
    70   111   110    1
    71   110   109    2
    72   116   115    2
    73   145   140   am
    74   105   104    2
    75   164   165    1
    76   140   139    1
    77    53    51   ar
    78   133   131   ar
    79   102    92   am
    80   102   103    1
    81    73    72    1
    82    92    93    2
    83   130   129    1
    84   130   131    1
    85   136   135    1
    86   136   138   am
    87   135   134    1
    88    46    48   ar
    89    70    71    1
    90    49    51   ar
    91    49    48   ar
    92   109   108    1
    93   115   114    1
    94    72    71    1
    95   129   126    1
    96   131   132   ar
    97   104   103    1
    98   104   113   am
    99    88    87    1
   100    88    89    1
   101   138   139    1
   102   139   142    1
   103   103   106    1
   104    71    74    1
   105   107   108    1
   106   107   106    1
   107   114   113    1
   108   114   117    1
   109   125   126    1
   110   126   127    1
   111   128   127    2
   112   142   143    1
   113   142   144    1
   114    74    75    1
   115   118   117    1
   116   117   119    1
   117    35    34    1
   118    35    36    1
   119    75    76    1
   120    34    33    1
   121    36    37    2
   122    38    37    1
   123    77    76    1
   124    77    78    2
   125    37    39    1
   126    12    11    1
   127    33    30    1
   128    80    78    1
   129    78    79    1
   130    10    11   ar
   131    10     8   ar
   132    11     9   ar
   133    26    25    1
   134    26    27    1
   135    25    23   am
   136    16    15    2
   137     8     6   ar
   138     9     7   ar
   139    22    23    1
   140    22    21    1
   141    23    24    2
   142    32    31    2
   143    30    31    1
   144    30    29    1
   145     4     3    2
   146    28    27    2
   147     6     7   ar
   148     6     5    1
   149    15    21   am
   150    15    14    1
   151     5     2    1
   152    19    18    2
   153     3     2    1
   154    14    13    1
   155    14    17    1
   156    18    20   am
   157    18    17    1
   158     2     1    1
