@<TRIPOS>MOLECULE
tmp/1abfA00.pdb
 126 119 0 0 0
SMALL
GASTEIGER

@<TRIPOS>ATOM
      1  N         11.5970   49.2040   59.0100 N.3     9  LYS9       -0.1231
      2  CA        10.6980   49.9940   59.9910 C.3     9  LYS9        0.1693
      3  C          9.3280   50.2740   59.5010 C.2     9  LYS9        0.2591
      4  O          8.3860   50.2740   60.3100 O.2     9  LYS9       -0.2718
      5  CB        11.4140   51.2650   60.3730 C.3     9  LYS9        0.0285
      6  CG        11.7460   52.1630   59.0420 C.3     9  LYS9        0.0035
      7  CD        12.3070   53.4770   59.4310 C.3     9  LYS9        0.0206
      8  CE        12.4560   54.4400   58.2480 C.3     9  LYS9        0.1093
      9  NZ        12.8060   55.8830   58.5590 N.3     9  LYS9       -0.1314
     10  N          9.2060   50.4970   58.0760 N.am   10  GLN10      -0.1979
     11  CA         7.8530   50.7770   57.5630 C.3    10  GLN10       0.1601
     12  C          7.4480   49.9220   56.3950 C.2    10  GLN10       0.2287
     13  O          7.5760   50.4540   55.2660 O.2    10  GLN10      -0.2864
     14  CB         7.8420   52.2990   57.2120 C.3    10  GLN10       0.0394
     15  CG         7.6700   53.1470   58.3960 C.3    10  GLN10       0.0908
     16  CD         7.7530   54.6770   58.2090 C.2    10  GLN10       0.2608
     17  OE1        8.7350   55.3800   58.3410 O.2    10  GLN10      -0.2717
     18  NE2        6.5940   55.2220   57.8660 N.am   10  GLN10      -0.0878
     19  N          5.4180   51.2510   53.2740 N.3    13  GLU13      -0.1196
     20  CA         5.8120   52.0910   52.1920 C.3    13  GLU13       0.1783
     21  C          6.3220   51.2580   51.0790 C.2    13  GLU13       0.2306
     22  O          7.1270   50.3100   51.2730 O.2    13  GLU13      -0.2863
     23  CB         7.0600   52.9530   52.5580 C.2    13  GLU13       0.0071
     24  CG         6.8380   54.1240   53.4530 C.2    13  GLU13       0.0834
     25  CD         8.0080   55.0000   53.7410 C.2    13  GLU13       0.3877
     26  OE1        9.2010   54.6330   53.4610 O.co2  13  GLU13      -0.2406
     27  OE2        7.7420   56.1060   54.2230 O.co2  13  GLU13      -0.2406
     28  N          8.5520   51.9550   49.0390 N.3    15  TRP15      -0.1227
     29  CA        10.0160   52.0260   49.1560 C.3    15  TRP15       0.1737
     30  C         10.5710   50.7840   49.7710 C.2    15  TRP15       0.2595
     31  O         11.4640   49.9940   49.2420 O.2    15  TRP15      -0.2718
     32  CB        10.4210   53.2110   50.0510 C.3    15  TRP15       0.0564
     33  CG        11.9070   53.1830   50.3080 C.ar   15  TRP15       0.0003
     34  CD1       12.5400   52.6370   51.4600 C.ar   15  TRP15       0.0946
     35  CD2       12.9500   53.6420   49.4600 C.ar   15  TRP15       0.0152
     36  NE1       13.9040   52.7370   51.3040 N.ar   15  TRP15      -0.2442
     37  CE2       14.1980   53.3480   50.0740 C.ar   15  TRP15       0.0810
     38  CE3       12.8720   54.2890   48.1600 C.ar   15  TRP15       0.0012
     39  CZ2       15.3850   53.6280   49.5060 C.ar   15  TRP15       0.0191
     40  CZ3       14.1370   54.5540   47.5760 C.ar   15  TRP15       0.0001
     41  CH2       15.3740   54.2600   48.2060 C.ar   15  TRP15       0.0015
     42  N         10.0220   50.3960   51.0010 N.am   16  PHE16      -0.1976
     43  CA        10.5480   49.1540   51.6860 C.3    16  PHE16       0.1639
     44  C         10.0990   47.8540   51.0790 C.2    16  PHE16       0.2290
     45  O         10.7980   46.8120   51.1560 O.2    16  PHE16      -0.2864
     46  CB        10.2550   49.1820   53.2810 C.3    16  PHE16       0.0560
     47  CG        11.1090   50.2670   53.9350 C.ar   16  PHE16      -0.0200
     48  CD1       12.5060   50.0800   53.9820 C.ar   16  PHE16      -0.0042
     49  CD2       10.5480   51.3510   54.4490 C.ar   16  PHE16      -0.0042
     50  CE1       13.2770   51.0570   54.5660 C.ar   16  PHE16      -0.0003
     51  CE2       11.3640   52.3780   55.0560 C.ar   16  PHE16      -0.0003
     52  CZ        12.8060   52.2200   55.0870 C.ar   16  PHE16      -0.0000
     53  N         19.5550   52.3640   54.7370 N.3    88  ASP88      -0.1225
     54  CA        18.9340   53.6640   54.7370 C.3    88  ASP88       0.1805
     55  C         19.1280   54.5110   56.0060 C.2    88  ASP88       0.2597
     56  O         19.5000   55.6680   55.8270 O.2    88  ASP88      -0.2718
     57  CB        17.4260   53.4840   54.5350 C.3    88  ASP88       0.1424
     58  CG        17.1150   52.7590   53.1800 C.2    88  ASP88       0.3668
     59  OD1       17.7580   53.0680   52.2310 O.co2  88  ASP88      -0.2456
     60  OD2       16.2440   51.9470   53.1490 O.co2  88  ASP88      -0.2456
     61  N         18.8620   54.0370   57.1810 N.am   89  ASP89      -0.1974
     62  CA        19.0120   54.9060   58.4110 C.3    89  ASP89       0.1709
     63  C         20.2430   54.5260   59.1970 C.2    89  ASP89       0.2293
     64  O         20.3260   53.2980   59.5550 O.2    89  ASP89      -0.2864
     65  CB        17.6970   54.6840   59.1660 C.3    89  ASP89       0.1436
     66  CG        16.5220   55.2510   58.5750 C.2    89  ASP89       0.3671
     67  OD1       16.6050   55.5960   57.2980 O.co2  89  ASP89      -0.2456
     68  OD2       15.3240   55.3370   59.1040 O.co2  89  ASP89      -0.2456
     69  N         21.2300   56.0630   50.4250 N.3   107  MET107     -0.1245
     70  CA        21.2520   57.0470   49.3120 C.3   107  MET107      0.1570
     71  C         22.1510   58.1960   49.6390 C.2   107  MET107      0.2261
     72  O         22.4280   58.5050   50.7980 O.2   107  MET107     -0.2867
     73  CB        19.8050   57.5130   49.0780 C.3   107  MET107      0.0387
     74  CG        19.4330   58.5910   49.9190 C.3   107  MET107      0.0595
     75  SD        17.8140   59.4240   49.7090 S.3   107  MET107     -0.1393
     76  CE        16.9650   58.1670   48.8910 C.3   107  MET107      0.0692
     77  N         19.2950   61.0330   58.1310 N.3   146  THR146     -0.1274
     78  CA        19.0010   60.9610   56.6990 C.3   146  THR146      0.1548
     79  C         17.8910   61.9520   56.2550 C.3   146  THR146      0.2036
     80  O         18.0240   62.5260   55.1030 O.3   146  THR146     -0.2187
     81  CB        18.7180   59.4450   56.3410 C.3   146  THR146      0.1721
     82  OG1       18.6400   59.5460   54.8690 O.3   146  THR146     -0.2215
     83  CG2       17.5140   58.9000   56.9710 C.3   146  THR146      0.0371
     84  N         18.3680   65.5930   53.8110 N.3   150  ARG150     -0.1245
     85  CA        17.5590   65.8370   52.5890 C.3   150  ARG150      0.1563
     86  C         16.9040   67.1520   52.7440 C.2   150  ARG150      0.2260
     87  O         16.9930   67.9850   51.7710 O.2   150  ARG150     -0.2867
     88  CB        16.4270   64.8250   52.3240 C.3   150  ARG150      0.0307
     89  CG        17.0480   63.5030   51.7640 C.3   150  ARG150      0.0489
     90  CD        16.0500   62.4690   51.6700 C.3   150  ARG150      0.2205
     91  NE        16.1500   61.5780   52.8300 N.pl3 150  ARG150     -0.0865
     92  CZ        15.4730   60.5010   53.0400 C.cat 150  ARG150      0.5346
     93  NH1       14.3310   60.1640   52.3470 N.pl3 150  ARG150      0.1354
     94  NH2       15.7730   59.5960   53.9820 N.pl3 150  ARG150      0.1354
     95  N          6.7330   60.2430   60.3420 N.3   176  ASN176     -0.1240
     96  CA         7.1270   60.3430   58.9640 C.3   176  ASN176      0.1653
     97  C          5.9900   59.7470   58.1700 C.2   176  ASN176      0.2266
     98  O          6.2230   58.6120   57.6170 O.2   176  ASN176     -0.2867
     99  CB         8.4520   59.6180   58.9170 C.3   176  ASN176      0.1155
    100  CG         9.5000   60.4510   59.5630 C.2   176  ASN176      0.2627
    101  OD1        9.5280   61.6430   59.6330 O.2   176  ASN176     -0.2716
    102  ND2       10.5150   59.7110   60.1000 N.am  176  ASN176     -0.0877
    103  N         11.2860   65.0980   53.3900 N.3   203  MET203     -0.1230
    104  CA        12.3070   64.0710   53.1020 C.3   203  MET203      0.1702
    105  C         11.7350   62.9360   52.2620 C.2   203  MET203      0.2592
    106  O         12.5400   62.2030   51.6230 O.2   203  MET203     -0.2718
    107  CB        12.8890   63.6400   54.4650 C.3   203  MET203      0.0401
    108  CG        11.9900   62.6990   55.2510 C.3   203  MET203      0.0596
    109  SD        12.5280   61.0040   55.2820 S.3   203  MET203     -0.1393
    110  CE        11.5630   60.3580   56.6830 C.3   203  MET203      0.0692
    111  N         10.4260   62.6840   52.1610 N.am  204  ASN204     -0.1974
    112  CA        10.0110   61.5500   51.3670 C.3   204  ASN204      0.1688
    113  C          8.5740   61.8660   50.8450 C.2   204  ASN204      0.2292
    114  O          8.0360   62.8780   51.2270 O.2   204  ASN204     -0.2864
    115  CB        10.2050   60.2280   52.1060 C.3   204  ASN204      0.1181
    116  CG         9.2400   60.1060   53.3750 C.2   204  ASN204      0.2629
    117  OD1        8.4300   61.0610   53.6080 O.2   204  ASN204     -0.2716
    118  ND2        9.3120   59.0220   54.0680 N.am  204  ASN204     -0.0877
    119  N         11.4140   59.0860   46.9300 N.3   231  ASN231     -0.1296
    120  CA        11.2470   57.6430   46.9450 C.3   231  ASN231      0.1339
    121  C         10.7260   57.1180   45.5360 C.3   231  ASN231      0.2014
    122  O         11.1590   56.0200   45.2480 O.3   231  ASN231     -0.2188
    123  CB        10.3040   57.0180   48.0580 C.3   231  ASN231      0.1102
    124  CG        10.9980   57.1760   49.4130 C.2   231  ASN231      0.2623
    125  OD1       12.2730   57.5920   49.5370 O.2   231  ASN231     -0.2716
    126  ND2       10.2990   56.9250   50.4950 N.am  231  ASN231     -0.0877
@<TRIPOS>BOND
     1   122   121    1
     2   121   120    1
     3   119   120    1
     4   120   123    1
     5    40    38   ar
     6    40    41   ar
     7   123   124    1
     8    38    35   ar
     9    41    39   ar
    10    76    75    1
    11    28    29    1
    12    73    70    1
    13    73    74    1
    14    29    30    1
    15    29    32    1
    16    31    30    2
    17    70    71    1
    18    70    69    1
    19   124   125    2
    20   124   126   am
    21    35    37   ar
    22    35    33   ar
    23    39    37   ar
    24    71    72    2
    25    75    74    1
    26    30    42   am
    27    32    33    1
    28    37    36   ar
    29    33    34   ar
    30   113   114    2
    31   113   112    1
    32    42    43    1
    33    21    22    2
    34    21    20    1
    35    44    45    2
    36    44    43    1
    37    36    34   ar
    38   112   115    1
    39   112   111    1
    40   106   105    2
    41    90    89    1
    42    90    91    1
    43    43    46    1
    44    89    88    1
    45    87    86    2
    46   115   116    1
    47   111   105   am
    48    20    23    1
    49    20    19    1
    50    59    58   ar
    51   105   104    1
    52    88    85    1
    53    93    92    1
    54    23    24    2
    55    85    86    1
    56    85    84    1
    57    91    92    2
    58    92    94    1
    59   104   103    1
    60   104   107    1
    61    60    58   ar
    62    58    57    1
    63    46    47    1
    64   116   117    2
    65   116   118   am
    66    24    25    1
    67    26    25   ar
    68    25    27   ar
    69    47    48   ar
    70    47    49   ar
    71    48    50   ar
    72    49    51   ar
    73   107   108    1
    74    57    54    1
    75    50    52   ar
    76    54    53    1
    77    54    55    1
    78    82    81    1
    79    51    52   ar
    80    80    79    1
    81   108   109    1
    82    13    12    2
    83   109   110    1
    84    56    55    2
    85    55    61   am
    86    79    78    1
    87    81    78    1
    88    81    83    1
    89    12    11    1
    90    78    77    1
    91    61    62    1
    92    14    11    1
    93    14    15    1
    94    67    66   ar
    95    11    10    1
    96    98    97    2
    97    18    16   am
    98    10     3   am
    99    97    96    1
   100    16    17    2
   101    16    15    1
   102     8     9    1
   103     8     7    1
   104    62    65    1
   105    62    63    1
   106    66    68   ar
   107    66    65    1
   108    99    96    1
   109    99   100    1
   110    96    95    1
   111     1     2    1
   112     6     7    1
   113     6     5    1
   114    63    64    2
   115     3     2    1
   116     3     4    2
   117   100   101    2
   118   100   102   am
   119     2     5    1
