@<TRIPOS>MOLECULE
tmp/1aboB00.pdb
 124 123 0 0 0
SMALL
GASTEIGER

@<TRIPOS>ATOM
      1  N         31.0230    3.3710   24.7830 N.3     7  TYR7       -0.1227
      2  CA        31.5300    3.9180   26.0490 C.3     7  TYR7        0.1736
      3  C         30.8440    3.2600   27.2340 C.2     7  TYR7        0.2595
      4  O         29.7820    2.6470   27.0930 O.2     7  TYR7       -0.2718
      5  CB        31.2420    5.4340   26.1700 C.3     7  TYR7        0.0548
      6  CG        31.2440    6.2540   24.8890 C.ar    7  TYR7       -0.0200
      7  CD1       32.4350    6.7210   24.3300 C.ar    7  TYR7       -0.0009
      8  CD2       30.0420    6.5900   24.2540 C.ar    7  TYR7       -0.0009
      9  CE1       32.4290    7.5090   23.1600 C.ar    7  TYR7        0.0417
     10  CE2       30.0200    7.3690   23.0930 C.ar    7  TYR7        0.0417
     11  CZ        31.2160    7.8270   22.5520 C.ar    7  TYR7        0.1957
     12  OH        31.1990    8.6160   21.4180 O.3     7  TYR7       -0.2866
     13  N         31.4570    3.3980   28.4040 N.am    8  ASP8       -0.1960
     14  CA        30.8800    2.8730   29.6390 C.3     8  ASP8        0.1840
     15  C         29.7090    3.7810   29.9940 C.2     8  ASP8        0.2622
     16  O         29.7860    5.0020   29.7970 O.2     8  ASP8       -0.2715
     17  CB        31.8910    2.9750   30.7980 C.3     8  ASP8        0.1450
     18  CG        32.8900    1.8430   30.8200 C.2     8  ASP8        0.3671
     19  OD1       33.0880    1.1600   29.7900 O.co2   8  ASP8       -0.2456
     20  OD2       33.4870    1.6340   31.8920 O.co2   8  ASP8       -0.2456
     21  N         28.6590    3.1960   30.5580 N.am    9  PHE9       -0.1974
     22  CA        27.4790    3.9450   30.9950 C.3     9  PHE9        0.1639
     23  C         27.0020    3.1870   32.2340 C.2     9  PHE9        0.2290
     24  O         26.9840    1.9560   32.2250 O.2     9  PHE9       -0.2864
     25  CB        26.4050    3.9900   29.8870 C.3     9  PHE9        0.0560
     26  CG        25.0520    4.4570   30.3600 C.ar    9  PHE9       -0.0200
     27  CD1       24.8050    5.7980   30.5960 C.ar    9  PHE9       -0.0042
     28  CD2       24.0310    3.5380   30.5920 C.ar    9  PHE9       -0.0042
     29  CE1       23.5470    6.2280   31.0650 C.ar    9  PHE9       -0.0003
     30  CE2       22.7790    3.9500   31.0560 C.ar    9  PHE9       -0.0003
     31  CZ        22.5380    5.2980   31.2930 C.ar    9  PHE9       -0.0000
     32  N         21.4140    4.6470   36.4170 N.3    12  SER12      -0.1217
     33  CA        21.0850    5.6480   37.4260 C.3    12  SER12       0.1889
     34  C         19.5700    5.7960   37.6000 C.2    12  SER12       0.2288
     35  O         19.0470    6.9160   37.6630 O.2    12  SER12      -0.2866
     36  CB        21.6980    6.9850   37.0330 C.3    12  SER12       0.2089
     37  OG        21.3500    7.3060   35.6960 O.3    12  SER12      -0.2183
     38  N         15.3680    4.8170   36.5720 N.3    14  ASP14      -0.1239
     39  CA        14.5180    4.8560   35.3870 C.3    14  ASP14       0.1674
     40  C         14.7340    3.6350   34.5110 C.2    14  ASP14       0.2266
     41  O         14.7260    3.7360   33.2930 O.2    14  ASP14      -0.2867
     42  CB        14.7610    6.1340   34.5720 C.3    14  ASP14       0.1410
     43  CG        14.4750    7.3960   35.3570 C.2    14  ASP14       0.3668
     44  OD1       13.6660    7.3400   36.2930 O.co2  14  ASP14      -0.2456
     45  OD2       15.0590    8.4490   35.0370 O.co2  14  ASP14      -0.2456
     46  N         17.4060    1.9870   33.7220 N.3    16  THR16      -0.1218
     47  CA        18.5520    2.0790   32.8230 C.3    16  THR16       0.1862
     48  C         19.4590    0.8780   33.0730 C.2    16  THR16       0.2287
     49  O         19.3430    0.2180   34.1050 O.2    16  THR16      -0.2866
     50  CB        19.3330    3.4050   32.9870 C.3    16  THR16       0.1770
     51  OG1       19.5800    3.6760   34.3740 O.3    16  THR16      -0.2211
     52  CG2       18.5490    4.5620   32.3640 C.3    16  THR16       0.0375
     53  N         12.7430    4.9200   22.3220 N.3    31  ASN31      -0.1240
     54  CA        11.6660    5.6990   22.9270 C.3    31  ASN31       0.1653
     55  C         11.1570    6.6690   21.8590 C.2    31  ASN31       0.2266
     56  O         11.7200    6.7430   20.7600 O.2    31  ASN31      -0.2867
     57  CB        12.1210    6.4350   24.1960 C.3    31  ASN31       0.1155
     58  CG        13.0560    7.5700   23.9060 C.2    31  ASN31       0.2627
     59  OD1       13.7810    7.5490   22.9180 O.2    31  ASN31      -0.2716
     60  ND2       13.0540    8.5710   24.7660 N.am   31  ASN31      -0.0877
     61  N         16.1400    9.2830   21.7530 N.3    35  GLU35      -0.1231
     62  CA        17.3450    9.4610   22.5650 C.3    35  GLU35       0.1699
     63  C         17.7250    8.2530   23.4270 C.2    35  GLU35       0.2592
     64  O         18.8930    8.0910   23.7980 O.2    35  GLU35      -0.2718
     65  CB        17.2170   10.7180   23.4270 C.3    35  GLU35       0.0402
     66  CG        17.2290   11.9960   22.5910 C.3    35  GLU35       0.1161
     67  CD        17.2320   13.2680   23.4180 C.2    35  GLU35       0.3649
     68  OE1       16.6940   13.2580   24.5520 O.co2  35  GLU35      -0.2457
     69  OE2       17.7740   14.2840   22.9210 O.co2  35  GLU35      -0.2457
     70  N         16.7380    7.4270   23.7580 N.am   36  TRP36      -0.1976
     71  CA        16.9610    6.2310   24.5760 C.3    36  TRP36       0.1640
     72  C         16.6570    4.9850   23.7530 C.2    36  TRP36       0.2290
     73  O         15.7480    4.9720   22.9200 O.2    36  TRP36      -0.2864
     74  CB        16.0970    6.2480   25.8420 C.3    36  TRP36       0.0576
     75  CG        16.5190    7.2690   26.8580 C.ar   36  TRP36       0.0006
     76  CD1       15.9640    8.5000   27.0580 C.ar   36  TRP36       0.0946
     77  CD2       17.5590    7.1310   27.8400 C.ar   36  TRP36       0.0152
     78  NE1       16.5920    9.1360   28.1050 N.ar   36  TRP36      -0.2442
     79  CE2       17.5710    8.3200   28.6070 C.ar   36  TRP36       0.0810
     80  CE3       18.4820    6.1130   28.1520 C.ar   36  TRP36       0.0012
     81  CZ2       18.4690    8.5250   29.6700 C.ar   36  TRP36       0.0191
     82  CZ3       19.3750    6.3170   29.2060 C.ar   36  TRP36       0.0001
     83  CH2       19.3580    7.5160   29.9520 C.ar   36  TRP36       0.0015
     84  N         17.2280    0.4870   29.5950 N.3    47  TRP47      -0.1241
     85  CA        17.5590    1.5870   28.6980 C.3    47  TRP47       0.1605
     86  C         18.9990    2.0800   28.7200 C.2    47  TRP47       0.2264
     87  O         19.6230    2.1710   29.7880 O.2    47  TRP47      -0.2867
     88  CB        16.6200    2.7660   28.9720 C.3    47  TRP47       0.0550
     89  CG        15.2020    2.3900   28.8480 C.ar   47  TRP47       0.0003
     90  CD1       14.3910    1.8850   29.8290 C.ar   47  TRP47       0.0946
     91  CD2       14.4130    2.4390   27.6570 C.ar   47  TRP47       0.0152
     92  NE1       13.1480    1.6130   29.3160 N.ar   47  TRP47      -0.2442
     93  CE2       13.1310    1.9440   27.9860 C.ar   47  TRP47       0.0810
     94  CE3       14.6630    2.8580   26.3390 C.ar   47  TRP47       0.0012
     95  CZ2       12.0950    1.8550   27.0420 C.ar   47  TRP47       0.0191
     96  CZ3       13.6360    2.7690   25.4050 C.ar   47  TRP47       0.0001
     97  CH2       12.3660    2.2690   25.7640 C.ar   47  TRP47       0.0015
     98  N         21.7310    5.0440   26.3630 N.3    49  PRO49      -0.2116
     99  CA        21.6460    6.1630   25.4080 C.3    49  PRO49       0.1372
    100  C         21.8530    5.6610   23.9780 C.2    49  PRO49       0.2244
    101  O         22.7630    4.8800   23.7200 O.2    49  PRO49      -0.2868
    102  CB        22.8010    7.0830   25.8310 C.3    49  PRO49       0.0268
    103  CG        23.1760    6.6240   27.2450 C.3    49  PRO49       0.0207
    104  CD        22.9510    5.1360   27.1890 C.3    49  PRO49       0.0892
    105  N         23.0870    7.0860   21.3260 N.3    51  ASN51      -0.1225
    106  CA        24.3770    7.4030   20.7270 C.3    51  ASN51       0.1785
    107  C         25.5840    6.8370   21.4890 C.2    51  ASN51       0.2597
    108  O         26.7180    7.2460   21.2690 O.2    51  ASN51      -0.2718
    109  CB        24.5200    8.9060   20.4770 C.3    51  ASN51       0.1169
    110  CG        24.5230    9.7070   21.7460 C.2    51  ASN51       0.2627
    111  OD1       24.4690    9.1540   22.8430 O.2    51  ASN51      -0.2716
    112  ND2       24.5800   11.0250   21.6100 N.am   51  ASN51      -0.0877
    113  N         25.3320    5.8910   22.3870 N.am   52  TYR52      -0.1976
    114  CA        26.4100    5.2420   23.1230 C.3    52  TYR52       0.1639
    115  C         26.6990    3.8850   22.4990 C.2    52  TYR52       0.2290
    116  O         27.5530    3.1580   22.9880 O.2    52  TYR52      -0.2864
    117  CB        26.0440    5.0330   24.6030 C.3    52  TYR52       0.0560
    118  CG        26.5270    6.1150   25.5340 C.ar   52  TYR52      -0.0198
    119  CD1       26.2350    7.4540   25.2930 C.ar   52  TYR52      -0.0009
    120  CD2       27.2470    5.7970   26.6850 C.ar   52  TYR52      -0.0009
    121  CE1       26.6390    8.4550   26.1750 C.ar   52  TYR52       0.0417
    122  CE2       27.6570    6.7940   27.5710 C.ar   52  TYR52       0.0417
    123  CZ        27.3460    8.1200   27.3080 C.ar   52  TYR52       0.1957
    124  OH        27.7450    9.1040   28.1820 O.3    52  TYR52      -0.2866
@<TRIPOS>BOND
     1   109   106    1
     2   109   110    1
     3   106   105    1
     4   106   107    1
     5    56    55    2
     6   108   107    2
     7    12    11    1
     8   107   113   am
     9   112   110   am
    10   110   111    2
    11    61    62    1
    12    55    54    1
    13    53    54    1
    14   113   114    1
    15   115   116    2
    16   115   114    1
    17    11    10   ar
    18    11     9   ar
    19    62    65    1
    20    62    63    1
    21    66    67    1
    22    66    65    1
    23    59    58    2
    24    73    72    2
    25    69    67   ar
    26    54    57    1
    27    10     8   ar
    28   114   117    1
    29     9     7   ar
    30    67    68   ar
    31    63    70   am
    32    63    64    2
    33   101   100    2
    34    72    71    1
    35    70    71    1
    36    58    57    1
    37    58    60   am
    38   100    99    1
    39     8     6   ar
    40     7     6   ar
    41    71    74    1
    42   117   118    1
    43     1     2    1
    44     6     5    1
    45   119   118   ar
    46   119   121   ar
    47    96    97   ar
    48    96    94   ar
    49    99   102    1
    50    99    98    1
    51   118   120   ar
    52    97    95   ar
    53   102   103    1
    54    74    75    1
    55     2     5    1
    56     2     3    1
    57   121   123   ar
    58    94    91   ar
    59    98   104    1
    60   120   122   ar
    61    75    76   ar
    62    75    77   ar
    63    95    93   ar
    64    76    78   ar
    65     4     3    2
    66   104   103    1
    67     3    13   am
    68   123   122   ar
    69   123   124    1
    70    91    93   ar
    71    91    89   ar
    72    77    80   ar
    73    77    79   ar
    74    93    92   ar
    75    78    79   ar
    76    80    82   ar
    77    13    14    1
    78    79    81   ar
    79    85    86    1
    80    85    88    1
    81    85    84    1
    82    86    87    2
    83    89    88    1
    84    89    90   ar
    85    82    83   ar
    86    92    90   ar
    87    14    15    1
    88    14    17    1
    89    81    83   ar
    90    19    18   ar
    91    16    15    2
    92    25    26    1
    93    25    22    1
    94    15    21   am
    95    26    28   ar
    96    26    27   ar
    97    21    22    1
    98    28    30   ar
    99    27    29   ar
   100    17    18    1
   101    18    20   ar
   102    22    23    1
   103    30    31   ar
   104    29    31   ar
   105    24    23    2
   106    52    50    1
   107    47    50    1
   108    47    48    1
   109    47    46    1
   110    50    51    1
   111    48    49    2
   112    41    40    2
   113    40    39    1
   114    42    43    1
   115    42    39    1
   116    45    43   ar
   117    43    44   ar
   118    39    38    1
   119    37    36    1
   120    32    33    1
   121    36    33    1
   122    33    34    1
   123    34    35    2
