@<TRIPOS>MOLECULE
tmp/1abrB01.pdb
 87 84 0 0 0
SMALL
GASTEIGER

@<TRIPOS>ATOM
      1  N         75.7120   32.8140   28.6600 N.3    13  GLU13      -0.1231
      2  CA        75.0780   33.8920   27.9260 C.3    13  GLU13       0.1684
      3  C         74.4410   33.2650   26.7030 C.2    13  GLU13       0.2434
      4  O         74.9960   33.2880   25.6170 O.2    13  GLU13      -0.2733
      5  CB        76.1070   34.9680   27.5750 C.3    13  GLU13       0.0402
      6  CG        76.3840   35.8630   28.7630 C.3    13  GLU13       0.1161
      7  CD        77.2640   37.0370   28.4410 C.2    13  GLU13       0.3649
      8  OE1       77.8820   37.0320   27.3670 O.co2  13  GLU13      -0.2457
      9  OE2       77.3430   37.9790   29.2610 O.co2  13  GLU13      -0.2457
     10  N         73.2460   32.6860   26.8650 N.am   14  PRO14      -0.2718
     11  CA        72.6180   32.0520   25.7020 C.3    14  PRO14       0.1535
     12  C         72.0170   32.9840   24.6890 C.2    14  PRO14       0.2599
     13  O         71.5920   34.0740   25.0170 O.2    14  PRO14      -0.2715
     14  CB        71.5480   31.1680   26.3350 C.3    14  PRO14       0.0310
     15  CG        71.1440   31.9700   27.5780 C.3    14  PRO14       0.0237
     16  CD        72.4520   32.4990   28.0950 C.3    14  PRO14       0.0939
     17  N         72.0710   32.5900   23.4320 N.am   15  THR15      -0.1937
     18  CA        71.4220   33.3750   22.4040 C.3    15  THR15       0.2028
     19  C         70.3010   32.4160   21.9660 C.2    15  THR15       0.2642
     20  O         70.5370   31.2440   21.7020 O.2    15  THR15      -0.2714
     21  CB        72.3810   33.8400   21.2560 C.3    15  THR15       0.1808
     22  OG1       72.0410   33.1960   20.0360 O.3    15  THR15      -0.2208
     23  CG2       73.8100   33.5590   21.5870 C.3    15  THR15       0.0379
     24  N         69.0680   32.8990   22.0110 N.am   16  VAL16      -0.1977
     25  CA        67.8960   32.1070   21.7020 C.3    16  VAL16       0.1596
     26  C         66.8870   33.0800   21.1150 C.2    16  VAL16       0.2287
     27  O         67.0970   34.2990   21.1620 O.2    16  VAL16      -0.2864
     28  CB        67.2780   31.6280   23.0280 C.3    16  VAL16       0.0276
     29  CG1       68.1620   30.5980   23.7330 C.3    16  VAL16       0.0022
     30  CG2       67.1370   32.7960   23.9430 C.3    16  VAL16       0.0022
     31  N         64.0480   29.3410    9.4980 N.3    47  ARG47      -0.1231
     32  CA        65.4440   29.0760    9.7630 C.3    47  ARG47       0.1694
     33  C         65.9090   30.1050   10.8060 C.2    47  ARG47       0.2592
     34  O         65.2290   31.1270   11.0180 O.2    47  ARG47      -0.2718
     35  CB        66.2890   29.0300    8.4790 C.3    47  ARG47       0.0321
     36  CG        66.1920   30.2290    7.5520 C.3    47  ARG47       0.0489
     37  CD        65.0060   30.1240    6.6130 C.3    47  ARG47       0.2205
     38  NE        63.8000   30.7920    7.1050 N.pl3  47  ARG47      -0.0865
     39  CZ        63.3210   31.9370    6.6170 C.cat  47  ARG47       0.5346
     40  NH1       63.9650   32.5840    5.6470 N.pl3  47  ARG47       0.1354
     41  NH2       62.2020   32.4560    7.1140 N.pl3  47  ARG47       0.1354
     42  N         66.9620   29.7560   11.5500 N.am   48  LEU48      -0.1966
     43  CA        67.4790   30.6190   12.5990 C.3    48  LEU48       0.1728
     44  C         68.2760   31.7740   12.0410 C.2    48  LEU48       0.2616
     45  O         69.4310   31.6040   11.6650 O.2    48  LEU48      -0.2715
     46  CB        68.3370   29.7970   13.5720 C.3    48  LEU48       0.0311
     47  CG        67.6200   29.0490   14.6980 C.3    48  LEU48       0.0022
     48  CD1       66.2240   28.7240   14.3140 C.3    48  LEU48       0.0001
     49  CD2       68.3680   27.7900   15.0420 C.3    48  LEU48       0.0001
     50  N         67.6810   32.9610   12.0060 N.am   49  GLU49      -0.1963
     51  CA        68.3840   34.1160   11.4760 C.3    49  GLU49       0.1733
     52  C         68.6820   35.1520   12.5360 C.2    49  GLU49       0.2616
     53  O         67.9670   35.2740   13.5300 O.2    49  GLU49      -0.2715
     54  CB        67.6030   34.7490   10.3400 C.3    49  GLU49       0.0429
     55  CG        67.6160   33.9430    9.0620 C.3    49  GLU49       0.1163
     56  CD        66.5680   34.4180    8.0660 C.2    49  GLU49       0.3649
     57  OE1       66.4440   35.6480    7.8540 O.co2  49  GLU49      -0.2457
     58  OE2       65.8670   33.5550    7.5070 O.co2  49  GLU49      -0.2457
     59  N         69.7150   35.9420   12.2660 N.am   50  GLU50      -0.1977
     60  CA        70.1980   36.9840   13.1620 C.3    50  GLU50       0.1602
     61  C         69.2320   37.9960   13.7320 C.2    50  GLU50       0.2287
     62  O         69.3200   38.2960   14.9080 O.2    50  GLU50      -0.2864
     63  CB        71.3880   37.7090   12.5420 C.3    50  GLU50       0.0415
     64  CG        72.7160   36.9740   12.7500 C.3    50  GLU50       0.1163
     65  CD        73.1440   36.8900   14.2280 C.2    50  GLU50       0.3649
     66  OE1       72.8320   37.8260   15.0070 O.co2  50  GLU50      -0.2457
     67  OE2       73.8010   35.8900   14.6100 O.co2  50  GLU50      -0.2457
     68  N         67.4770   36.3050   16.6150 N.3    53  LEU53      -0.1245
     69  CA        68.3130   35.6840   17.6550 C.3    53  LEU53       0.1561
     70  C         68.8250   36.7390   18.6380 C.2    53  LEU53       0.2260
     71  O         69.3410   37.7760   18.2370 O.2    53  LEU53      -0.2867
     72  CB        69.4690   34.8800   17.0030 C.3    53  LEU53       0.0270
     73  CG        69.0980   33.5220   16.3490 C.3    53  LEU53       0.0019
     74  CD1       69.9290   33.2560   15.1180 C.3    53  LEU53       0.0001
     75  CD2       69.3040   32.3820   17.3150 C.3    53  LEU53       0.0001
     76  N         63.9880   30.4320   23.9170 N.3   139  GLY139     -0.1210
     77  CA        64.3660   29.1790   23.3010 C.3   139  GLY139      0.1956
     78  C         64.1390   29.2640   21.8110 C.2   139  GLY139      0.2611
     79  O         63.1340   29.8380   21.3780 O.2   139  GLY139     -0.2717
     80  N         65.0960   28.7530   21.0350 N.am  140  ASN140     -0.1974
     81  CA        65.0170   28.7260   19.5790 C.3   140  ASN140      0.1688
     82  C         63.7730   28.0430   19.0360 C.2   140  ASN140      0.2292
     83  O         63.2310   28.4680   18.0130 O.2   140  ASN140     -0.2864
     84  CB        66.2550   28.0750   19.0010 C.3   140  ASN140      0.1181
     85  CG        67.4590   28.9580   19.1390 C.2   140  ASN140      0.2629
     86  OD1       67.3630   30.0570   19.6660 O.2   140  ASN140     -0.2716
     87  ND2       68.5820   28.5160   18.6470 N.am  140  ASN140     -0.0877
@<TRIPOS>BOND
     1    40    39    1
     2    37    38    1
     3    37    36    1
     4    39    38    2
     5    39    41    1
     6    58    56   ar
     7    36    35    1
     8    57    56   ar
     9    56    55    1
    10    35    32    1
    11    55    54    1
    12    31    32    1
    13    32    33    1
    14    54    51    1
    15    33    34    2
    16    33    42   am
    17    51    50    1
    18    51    52    1
    19    42    43    1
    20    45    44    2
    21    50    44   am
    22    44    43    1
    23    59    52   am
    24    59    60    1
    25    52    53    2
    26    63    64    1
    27    63    60    1
    28    43    46    1
    29    64    65    1
    30    60    61    1
    31    46    47    1
    32    61    62    2
    33    65    67   ar
    34    65    66   ar
    35    48    47    1
    36    47    49    1
    37    74    73    1
    38    73    72    1
    39    73    75    1
    40    68    69    1
    41    72    69    1
    42    69    70    1
    43    83    82    2
    44    71    70    2
    45    87    85   am
    46    84    85    1
    47    84    81    1
    48    82    81    1
    49    85    86    2
    50    81    80    1
    51    22    21    1
    52    80    78   am
    53    26    27    2
    54    26    25    1
    55    21    23    1
    56    21    18    1
    57    79    78    2
    58    20    19    2
    59    25    24    1
    60    25    28    1
    61    78    77    1
    62    19    24   am
    63    19    18    1
    64    18    17    1
    65    28    29    1
    66    28    30    1
    67    77    76    1
    68    17    12   am
    69    12    13    2
    70    12    11    1
    71     4     3    2
    72    11    14    1
    73    11    10    1
    74    14    15    1
    75     3    10   am
    76     3     2    1
    77    10    16    1
    78     8     7   ar
    79     5     2    1
    80     5     6    1
    81    15    16    1
    82     2     1    1
    83     7     6    1
    84     7     9   ar
