@<TRIPOS>MOLECULE
tmp/1abtA00.pdb
 140 140 0 0 0
SMALL
GASTEIGER

@<TRIPOS>ATOM
      1  N         -5.7930    3.3170    0.9420 N.3     6  THR6       -0.1203
      2  CA        -6.5000    2.7710    2.1190 C.3     6  THR6        0.1994
      3  C         -6.7060    3.7910    3.2440 C.2     6  THR6        0.2618
      4  O         -7.2940    3.4470    4.2580 O.2     6  THR6       -0.2717
      5  CB        -5.8660    1.4990    2.6810 C.3     6  THR6        0.1784
      6  OG1       -4.5850    1.8130    3.2280 O.3     6  THR6       -0.2211
      7  CG2       -5.8090    0.3810    1.6530 C.3     6  THR6        0.0376
      8  N         -6.4500    5.0730    2.9530 N.am    7  ALA7       -0.1965
      9  CA        -6.7310    6.1760    3.8940 C.3     7  ALA7        0.1728
     10  C         -8.2150    6.5520    3.7810 C.2     7  ALA7        0.2617
     11  O         -8.6600    7.2390    2.8650 O.2     7  ALA7       -0.2715
     12  CB        -5.8170    7.3710    3.5930 C.3     7  ALA7        0.0334
     13  N         -8.9660    5.7910    4.5760 N.am    8  THR8       -0.1937
     14  CA       -10.4540    5.7920    4.6640 C.3     8  THR8        0.2028
     15  C        -11.0850    5.3790    3.3240 C.2     8  THR8        0.2643
     16  O        -12.0970    5.9220    2.8660 O.2     8  THR8       -0.2714
     17  CB       -10.9950    7.1220    5.2450 C.3     8  THR8        0.1808
     18  OG1      -10.7740    8.2370    4.3830 O.3     8  THR8       -0.2208
     19  CG2      -10.3450    7.4050    6.6080 C.3     8  THR8        0.0379
     20  N        -10.4920    4.3440    2.7370 N.am    9  SER9       -0.1936
     21  CA       -10.8720    3.8290    1.4020 C.3     9  SER9        0.2040
     22  C        -10.4830    2.3460    1.2300 C.2     9  SER9        0.2485
     23  O         -9.3870    1.9670    1.6180 O.2     9  SER9       -0.2729
     24  CB       -10.1640    4.6380    0.3000 C.3     9  SER9        0.2129
     25  OG       -10.4010    6.0350    0.4240 O.3     9  SER9       -0.2179
     26  N        -11.4000    1.4820    0.7830 N.am   10  PRO10      -0.2715
     27  CA       -11.0580    0.0860    0.4390 C.3    10  PRO10       0.1536
     28  C        -10.3010   -0.0150   -0.8980 C.2    10  PRO10       0.2598
     29  O        -10.9060    0.0140   -1.9630 O.2    10  PRO10      -0.2715
     30  CB       -12.3860   -0.6620    0.4450 C.3    10  PRO10       0.0310
     31  CG       -13.4250    0.4230    0.1510 C.3    10  PRO10       0.0237
     32  CD       -12.8630    1.6630    0.8370 C.3    10  PRO10       0.0939
     33  N         -8.9910    0.2310   -0.7910 N.am   11  ILE11      -0.1978
     34  CA        -7.9860    0.1280   -1.8830 C.3    11  ILE11       0.1596
     35  C         -8.4650    0.9430   -3.1200 C.2    11  ILE11       0.2287
     36  O         -8.4990    0.4900   -4.2590 O.2    11  ILE11      -0.2864
     37  CB        -7.6710   -1.3500   -2.2200 C.3    11  ILE11       0.0276
     38  CG1       -7.3750   -2.1720   -0.9600 C.3    11  ILE11       0.0022
     39  CG2       -6.4440   -1.4400   -3.1430 C.3    11  ILE11       0.0022
     40  CD1       -7.6320   -3.6740   -1.1460 C.3    11  ILE11       0.0001
     41  N         -4.0980   12.0090    4.5890 N.3    18  PRO18      -0.2102
     42  CA        -2.9360   11.4730    5.3370 C.3    18  PRO18       0.1504
     43  C         -1.8590   10.9490    4.3810 C.2    18  PRO18       0.2576
     44  O         -2.1060   10.0190    3.6070 O.2    18  PRO18      -0.2718
     45  CB        -3.4680   10.3240    6.1960 C.3    18  PRO18       0.0282
     46  CG        -4.9680   10.5750    6.2640 C.3    18  PRO18       0.0208
     47  CD        -5.2780   11.1760    4.8950 C.3    18  PRO18       0.0893
     48  N         -0.7530   11.6880    4.3330 N.am   19  GLY19      -0.1957
     49  CA         0.5150   11.1780    3.7770 C.3    19  GLY19       0.1869
     50  C          1.1820   12.1520    2.8030 C.2    19  GLY19       0.2309
     51  O          0.7640   13.2940    2.6250 O.2    19  GLY19      -0.2863
     52  N          4.5530   -7.4240    2.7780 N.3    28  TRP28      -0.1241
     53  CA         5.3820   -8.4730    3.3810 C.3    28  TRP28       0.1605
     54  C          4.4920   -9.7160    3.5830 C.2    28  TRP28       0.2264
     55  O          3.4780   -9.8460    2.8910 O.2    28  TRP28      -0.2867
     56  CB         6.0740   -7.9500    4.6480 C.3    28  TRP28       0.0550
     57  CG         5.1730   -7.4760    5.7980 C.ar   28  TRP28       0.0003
     58  CD1        5.2050   -8.0230    7.0050 C.ar   28  TRP28       0.0946
     59  CD2        4.5750   -6.2230    5.9380 C.ar   28  TRP28       0.0152
     60  NE1        4.7150   -7.1770    7.9230 N.ar   28  TRP28      -0.2442
     61  CE2        4.3280   -6.0680    7.3170 C.ar   28  TRP28       0.0810
     62  CE3        4.2500   -5.1780    5.0460 C.ar   28  TRP28       0.0012
     63  CZ2        3.7780   -4.8710    7.8280 C.ar   28  TRP28       0.0191
     64  CZ3        3.6950   -3.9850    5.5440 C.ar   28  TRP28       0.0001
     65  CH2        3.4660   -3.8280    6.9310 C.ar   28  TRP28       0.0015
     66  N          0.6840  -14.4990    6.2950 N.3    32  PHE32      -0.1241
     67  CA         1.1610  -13.6250    7.3970 C.3    32  PHE32       0.1605
     68  C          2.1470  -14.3430    8.3310 C.2    32  PHE32       0.2264
     69  O          1.9610  -14.4840    9.5490 O.2    32  PHE32      -0.2867
     70  CB         0.0410  -12.8250    8.0860 C.3    32  PHE32       0.0534
     71  CG        -0.9400  -13.6010    8.9660 C.ar   32  PHE32      -0.0203
     72  CD1       -1.9940  -14.3060    8.3590 C.ar   32  PHE32      -0.0042
     73  CD2       -0.9280  -13.3650   10.3530 C.ar   32  PHE32      -0.0042
     74  CE1       -3.0680  -14.7760    9.1370 C.ar   32  PHE32      -0.0003
     75  CE2       -2.0100  -13.8280   11.1480 C.ar   32  PHE32      -0.0003
     76  CZ        -3.0690  -14.5290   10.5250 C.ar   32  PHE32      -0.0000
     77  N         -2.4330  -15.1450    5.2520 N.3    37  GLY37      -0.1210
     78  CA        -2.8390  -13.7860    4.7980 C.3    37  GLY37       0.1956
     79  C         -1.6850  -13.0220    4.1310 C.2    37  GLY37       0.2612
     80  O         -0.5510  -13.4960    4.0950 O.2    37  GLY37      -0.2717
     81  N         -2.0280  -11.9480    3.4310 N.am   38  LYS38      -0.1965
     82  CA        -1.0430  -11.0600    2.7670 C.3    38  LYS38       0.1728
     83  C         -1.0510   -9.6390    3.3500 C.2    38  LYS38       0.2616
     84  O         -1.8320   -8.8000    2.9320 O.2    38  LYS38      -0.2715
     85  CB        -1.3660  -11.0410    1.2650 C.3    38  LYS38       0.0311
     86  CG        -1.0990  -12.3590    0.5520 C.3    38  LYS38       0.0038
     87  CD        -1.5600  -12.2550   -0.9070 C.3    38  LYS38       0.0206
     88  CE        -0.9900  -13.3730   -1.7770 C.3    38  LYS38       0.1093
     89  NZ         0.4620  -13.2370   -1.8990 N.3    38  LYS38      -0.1314
     90  N         -0.1510   -9.3960    4.3080 N.am   39  VAL39      -0.1963
     91  CA         0.0010   -8.0930    4.9890 C.3    39  VAL39       0.1727
     92  C          0.5180   -7.0490    3.9880 C.2    39  VAL39       0.2616
     93  O          1.6800   -7.0610    3.5880 O.2    39  VAL39      -0.2715
     94  CB         0.9750   -8.1240    6.1910 C.3    39  VAL39       0.0290
     95  CG1        0.8050   -6.8510    7.0250 C.3    39  VAL39       0.0023
     96  CG2        0.7380   -9.2940    7.1610 C.3    39  VAL39       0.0023
     97  N         -0.4620   -6.3420    3.4580 N.am   40  VAL40      -0.1963
     98  CA        -0.2380   -5.1720    2.5990 C.3    40  VAL40       0.1727
     99  C         -0.8740   -3.9610    3.2860 C.2    40  VAL40       0.2616
    100  O         -2.0850   -3.8590    3.4650 O.2    40  VAL40      -0.2715
    101  CB        -0.8390   -5.3350    1.1900 C.3    40  VAL40       0.0290
    102  CG1       -0.2200   -4.3370    0.2190 C.3    40  VAL40       0.0023
    103  CG2       -0.5970   -6.7090    0.5800 C.3    40  VAL40       0.0023
    104  N          0.0210   -3.1280    3.7930 N.am   41  GLU41      -0.1963
    105  CA        -0.2970   -1.8170    4.3680 C.3    41  GLU41       0.1733
    106  C         -0.1840   -0.7870    3.2420 C.2    41  GLU41       0.2616
    107  O          0.8330   -0.6860    2.5570 O.2    41  GLU41      -0.2715
    108  CB         0.6940   -1.5010    5.5040 C.3    41  GLU41       0.0429
    109  CG         0.5080   -0.1210    6.1610 C.3    41  GLU41       0.1163
    110  CD        -0.8880    0.0850    6.7500 C.2    41  GLU41       0.3649
    111  OE1       -1.1320   -0.4480    7.8570 O.co2  41  GLU41      -0.2457
    112  OE2       -1.6880    0.7500    6.0630 O.co2  41  GLU41      -0.2457
    113  N         -1.2870   -0.0840    3.0070 N.am   42  LEU42      -0.1963
    114  CA        -1.2740    0.9480    1.9630 C.3    42  LEU42       0.1728
    115  C         -1.1840    2.3780    2.5190 C.2    42  LEU42       0.2617
    116  O         -2.0970    3.1910    2.4230 O.2    42  LEU42      -0.2715
    117  CB        -2.3320    0.7100    0.8600 C.3    42  LEU42       0.0311
    118  CG        -2.1870   -0.6600    0.1680 C.3    42  LEU42       0.0022
    119  CD1       -3.2110   -0.8140   -0.9640 C.3    42  LEU42       0.0001
    120  CD2       -0.8180   -0.8490   -0.4650 C.3    42  LEU42       0.0001
    121  N          0.0820    2.7060    2.7850 N.am   43  GLY43      -0.1940
    122  CA         0.5260    3.9480    3.4390 C.3    43  GLY43       0.2014
    123  C          1.0760    5.0000    2.4620 C.2    43  GLY43       0.2639
    124  O          1.9600    4.7390    1.6540 O.2    43  GLY43      -0.2714
    125  N          0.4200    6.1570    2.4820 N.am   44  CYS44      -0.1967
    126  CA         0.8610    7.3290    1.6770 C.3    44  CYS44       0.1712
    127  C          2.1590    7.8930    2.2660 C.2    44  CYS44       0.2296
    128  O          2.1940    8.5380    3.3190 O.2    44  CYS44      -0.2864
    129  CB        -0.2390    8.3860    1.5640 C.3    44  CYS44       0.0983
    130  SG        -1.7240    7.8400    0.6610 S.3    44  CYS44      -0.0798
    131  N         -2.3580   -3.8250   -3.8730 N.3    68  HIS68      -0.1241
    132  CA        -2.2790   -4.8460   -2.7900 C.3    68  HIS68       0.1621
    133  C         -1.4230   -6.1280   -3.0440 C.2    68  HIS68       0.2264
    134  O         -0.3770   -6.2520   -2.4030 O.2    68  HIS68      -0.2867
    135  CB        -3.7160   -5.1050   -2.2510 C.3    68  HIS68       0.0745
    136  CG        -3.9460   -6.3820   -1.4240 C.ar   68  HIS68       0.0817
    137  ND1       -3.5900   -7.6100   -1.8030 N.ar   68  HIS68      -0.2268
    138  CD2       -4.0980   -6.4530   -0.1010 C.ar   68  HIS68       0.1154
    139  CE1       -3.3580   -8.3770   -0.7460 C.ar   68  HIS68       0.1986
    140  NE2       -3.7050   -7.6560    0.3110 N.ar   68  HIS68      -0.2212
@<TRIPOS>BOND
     1    36    35    2
     2   131   132    1
     3    39    37    1
     4    35    34    1
     5   133   132    1
     6   133   134    2
     7   132   135    1
     8   135   136    1
     9    37    34    1
    10    37    38    1
    11    29    28    2
    12    89    88    1
    13    34    33    1
    14   137   136   ar
    15   137   139   ar
    16    88    87    1
    17   136   138   ar
    18    40    38    1
    19   119   118    1
    20    87    86    1
    21    28    33   am
    22    28    27    1
    23   139   140   ar
    24   120   118    1
    25   138   140   ar
    26    31    30    1
    27    31    32    1
    28   118   117    1
    29   102   101    1
    30    24    25    1
    31    24    21    1
    32    27    30    1
    33    27    26    1
    34    86    85    1
    35   103   101    1
    36   130   129    1
    37    26    32    1
    38    26    22   am
    39   117   114    1
    40     1     2    1
    41   101    98    1
    42    22    21    1
    43    22    23    2
    44    85    82    1
    45    21    20    1
    46   129   126    1
    47     7     5    1
    48   124   123    2
    49   126   127    1
    50   126   125    1
    51   114   115    1
    52   114   113    1
    53     2     5    1
    54     2     3    1
    55   127   128    2
    56   116   115    2
    57   123   125   am
    58   123   122    1
    59   115   121   am
    60   107   106    2
    61    98    99    1
    62    98    97    1
    63    51    50    2
    64     5     6    1
    65    20    15   am
    66    82    83    1
    67    82    81    1
    68    52    53    1
    69   121   122    1
    70    50    49    1
    71    11    10    2
    72    16    15    2
    73    55    54    2
    74    84    83    2
    75     8     3   am
    76     8     9    1
    77   113   106   am
    78   106   105    1
    79     3     4    2
    80    99   100    2
    81    99   104   am
    82    15    14    1
    83    83    90   am
    84    53    54    1
    85    53    56    1
    86    81    79   am
    87    97    92   am
    88    93    92    2
    89    12     9    1
    90    44    43    2
    91    49    48    1
    92    10     9    1
    93    10    13   am
    94   104   105    1
    95    92    91    1
    96    80    79    2
    97    79    78    1
    98    90    91    1
    99    48    43   am
   100   105   108    1
   101    43    42    1
   102    18    17    1
   103    13    14    1
   104    41    47    1
   105    41    42    1
   106    56    57    1
   107    14    17    1
   108    78    77    1
   109    47    46    1
   110    91    94    1
   111    62    64   ar
   112    62    59   ar
   113    17    19    1
   114    42    45    1
   115   108   109    1
   116    64    65   ar
   117    57    59   ar
   118    57    58   ar
   119    59    61   ar
   120   112   110   ar
   121   109   110    1
   122    94    95    1
   123    94    96    1
   124    45    46    1
   125    66    67    1
   126   110   111   ar
   127    65    63   ar
   128    58    60   ar
   129    61    63   ar
   130    61    60   ar
   131    67    70    1
   132    67    68    1
   133    70    71    1
   134    68    69    2
   135    72    71   ar
   136    72    74   ar
   137    71    73   ar
   138    74    76   ar
   139    73    75   ar
   140    76    75   ar
