@<TRIPOS>MOLECULE
tmp/1abwA01.pdb
 96 89 0 0 0
SMALL
GASTEIGER

@<TRIPOS>ATOM
      1  N          5.9220   27.9980   30.3560 N.3   142  GLY142     -0.1210
      2  CA         6.3220   29.3770   30.6760 C.3   142  GLY142      0.1956
      3  C          5.9830   29.9110   32.0650 C.2   142  GLY142      0.2612
      4  O          5.6430   29.1460   32.9750 O.2   142  GLY142     -0.2717
      5  N          6.1840   31.2080   32.2740 N.am  143  VAL143     -0.1965
      6  CA         5.8230   31.8260   33.5490 C.3   143  VAL143      0.1727
      7  C          4.2960   32.0730   33.4610 C.2   143  VAL143      0.2616
      8  O          3.6520   31.7530   32.4450 O.2   143  VAL143     -0.2715
      9  CB         6.6520   33.1270   33.7950 C.3   143  VAL143      0.0290
     10  CG1        6.2460   33.7960   35.1270 C.3   143  VAL143      0.0023
     11  CG2        8.1580   32.7730   33.8440 C.3   143  VAL143      0.0023
     12  N          3.6980   32.5970   34.5170 N.am  144  LEU144     -0.1963
     13  CA         2.2610   32.8280   34.5180 C.3   144  LEU144      0.1728
     14  C          1.7980   33.9730   33.6120 C.2   144  LEU144      0.2616
     15  O          2.1770   35.1170   33.8350 O.2   144  LEU144     -0.2715
     16  CB         1.7950   33.0840   35.9550 C.3   144  LEU144      0.0311
     17  CG         1.8450   31.9200   36.9490 C.3   144  LEU144      0.0022
     18  CD1        1.7070   32.4720   38.3430 C.3   144  LEU144      0.0001
     19  CD2        0.7640   30.9070   36.6900 C.3   144  LEU144      0.0001
     20  N          0.9600   33.6810   32.6250 N.am  145  SER145     -0.1950
     21  CA         0.4460   34.7120   31.7250 C.3   145  SER145      0.1924
     22  C         -0.7530   35.4470   32.3580 C.2   145  SER145      0.2314
     23  O         -1.2510   35.0570   33.4130 O.2   145  SER145     -0.2863
     24  CB         0.0100   34.0610   30.4270 C.3   145  SER145      0.2116
     25  OG        -1.1790   33.3290   30.6300 O.3   145  SER145     -0.2180
     26  N         -3.5620   33.1780   32.7280 N.3   148  ASP148     -0.1225
     27  CA        -3.3010   32.2870   33.8690 C.3   148  ASP148      0.1805
     28  C         -3.6250   32.9550   35.1700 C.2   148  ASP148      0.2597
     29  O         -4.2990   32.3760   36.0060 O.2   148  ASP148     -0.2718
     30  CB        -1.8320   31.8740   33.9520 C.3   148  ASP148      0.1424
     31  CG        -1.4540   30.9000   32.8970 C.2   148  ASP148      0.3668
     32  OD1       -2.3310   30.0920   32.4970 O.co2 148  ASP148     -0.2456
     33  OD2       -0.2850   30.9490   32.4540 O.co2 148  ASP148     -0.2456
     34  N         -3.1040   34.1690   35.3520 N.am  149  LYS149     -0.1979
     35  CA        -3.3180   34.9130   36.5870 C.3   149  LYS149      0.1596
     36  C         -4.7610   35.2240   36.7990 C.2   149  LYS149      0.2287
     37  O         -5.2530   35.1020   37.9100 O.2   149  LYS149     -0.2864
     38  CB        -2.4280   36.1470   36.6480 C.3   149  LYS149      0.0298
     39  CG        -0.9440   35.7720   36.8790 C.3   149  LYS149      0.0038
     40  CD         0.0630   36.9510   36.7450 C.3   149  LYS149      0.0206
     41  CE         0.2690   37.3560   35.2750 C.3   149  LYS149      0.1093
     42  NZ         0.9860   38.6610   35.0530 N.3   149  LYS149     -0.1314
     43  N         -6.4780   31.8050   37.8430 N.3   152  VAL152     -0.1245
     44  CA        -6.1590   31.4720   39.2200 C.3   152  VAL152      0.1561
     45  C         -6.9660   32.3470   40.1760 C.2   152  VAL152      0.2260
     46  O         -7.5210   31.8380   41.1500 O.2   152  VAL152     -0.2867
     47  CB        -4.6490   31.6400   39.5170 C.3   152  VAL152      0.0252
     48  CG1       -4.3950   31.4640   41.0060 C.3   152  VAL152      0.0019
     49  CG2       -3.8390   30.6130   38.7380 C.3   152  VAL152      0.0019
     50  N          0.5320   37.3540   43.3660 N.3   215  VAL215     -0.1245
     51  CA         0.9740   36.4970   42.2870 C.3   215  VAL215      0.1561
     52  C          2.1500   37.0330   41.4490 C.2   215  VAL215      0.2260
     53  O          2.9480   36.2550   40.9100 O.2   215  VAL215     -0.2867
     54  CB        -0.2010   36.0740   41.4240 C.3   215  VAL215      0.0252
     55  CG1       -0.7230   37.2380   40.6510 C.3   215  VAL215      0.0019
     56  CG2        0.1910   34.9560   40.5310 C.3   215  VAL215      0.0019
     57  N          5.5840   36.8190   44.2250 N.3   218  MET218     -0.1245
     58  CA         5.5900   35.6130   45.0640 C.3   218  MET218      0.1570
     59  C          6.8340   35.3440   45.9030 C.2   218  MET218      0.2261
     60  O          6.7300   35.0590   47.1090 O.2   218  MET218     -0.2867
     61  CB         5.2470   34.3650   44.2310 C.3   218  MET218      0.0387
     62  CG         3.7630   34.1610   43.9690 C.3   218  MET218      0.0595
     63  SD         3.4000   32.5130   43.3350 S.3   218  MET218     -0.1393
     64  CE         3.4720   32.8320   41.6250 C.3   218  MET218      0.0692
     65  N         -3.9310   26.5130   34.2420 N.3   266  SER266     -0.1217
     66  CA        -3.4220   27.6910   34.9360 C.3   266  SER266      0.1889
     67  C         -3.0940   27.3910   36.3920 C.2   266  SER266      0.2288
     68  O         -2.0870   27.8490   36.9110 O.2   266  SER266     -0.2866
     69  CB        -4.4290   28.8500   34.8660 C.3   266  SER266      0.2089
     70  OG        -4.7200   29.1530   33.5190 O.3   266  SER266     -0.2183
     71  N          0.1320   25.3750   36.6990 N.3   269  LYS269     -0.1231
     72  CA         1.2820   26.2530   36.5160 C.3   269  LYS269      0.1693
     73  C          1.4700   27.0710   37.7610 C.2   269  LYS269      0.2592
     74  O          2.5770   27.2160   38.2280 O.2   269  LYS269     -0.2718
     75  CB         1.0730   27.2100   35.3500 C.3   269  LYS269      0.0285
     76  CG         1.2420   26.5800   34.0000 C.3   269  LYS269      0.0035
     77  CD         0.9540   27.5650   32.8550 C.3   269  LYS269      0.0206
     78  CE         1.9450   28.6920   32.8760 C.3   269  LYS269      0.1093
     79  NZ         1.8800   29.5730   31.6490 N.3   269  LYS269     -0.1314
     80  N          0.3900   27.5690   38.3450 N.am  270  PHE270     -0.1976
     81  CA         0.4890   28.3800   39.5510 C.3   270  PHE270      0.1639
     82  C          1.1220   27.6020   40.7160 C.2   270  PHE270      0.2290
     83  O          2.0200   28.1080   41.3990 O.2   270  PHE270     -0.2864
     84  CB        -0.9020   28.9060   39.9300 C.3   270  PHE270      0.0560
     85  CG        -0.9480   29.6100   41.2470 C.ar  270  PHE270     -0.0200
     86  CD1       -0.2900   30.8320   41.4210 C.ar  270  PHE270     -0.0042
     87  CD2       -1.6160   29.0470   42.3260 C.ar  270  PHE270     -0.0042
     88  CE1       -0.2920   31.4740   42.6370 C.ar  270  PHE270     -0.0003
     89  CE2       -1.6230   29.6880   43.5630 C.ar  270  PHE270     -0.0003
     90  CZ        -0.9550   30.9060   43.7110 C.ar  270  PHE270     -0.0000
     91  N          4.6470   27.0860   40.4010 N.3   273  SER273     -0.1217
     92  CA         5.3940   28.3090   40.6830 C.3   273  SER273      0.1889
     93  C          5.5570   28.4690   42.1640 C.2   273  SER273      0.2288
     94  O          6.6230   28.8380   42.6130 O.2   273  SER273     -0.2866
     95  CB         4.6940   29.5390   40.1270 C.3   273  SER273      0.2089
     96  OG         4.7100   29.4870   38.7200 O.3   273  SER273     -0.2183
@<TRIPOS>BOND
     1     1     2    1
     2    24    25    1
     3    24    21    1
     4     2     3    1
     5    79    78    1
     6    21    22    1
     7    21    20    1
     8     3     5   am
     9     3     4    2
    10     5     6    1
    11    22    23    2
    12     8     7    2
    13    33    31   ar
    14    32    31   ar
    15    20    14   am
    16    26    27    1
    17    77    78    1
    18    77    76    1
    19    31    30    1
    20     7     6    1
    21     7    12   am
    22    70    69    1
    23     6     9    1
    24    14    15    2
    25    14    13    1
    26     9    11    1
    27     9    10    1
    28    27    30    1
    29    27    28    1
    30    76    75    1
    31    65    66    1
    32    12    13    1
    33    13    16    1
    34    69    66    1
    35    66    67    1
    36    42    41    1
    37    28    34   am
    38    28    29    2
    39    41    40    1
    40    75    72    1
    41    34    35    1
    42    16    17    1
    43    67    68    2
    44    72    71    1
    45    72    73    1
    46    35    38    1
    47    35    36    1
    48    38    39    1
    49    19    17    1
    50    40    39    1
    51    36    37    2
    52    17    18    1
    53    73    74    2
    54    73    80   am
    55    43    44    1
    56    80    81    1
    57    96    95    1
    58    49    47    1
    59    44    47    1
    60    44    45    1
    61    47    48    1
    62    81    84    1
    63    81    82    1
    64    84    85    1
    65    95    92    1
    66    45    46    2
    67    91    92    1
    68    56    54    1
    69    55    54    1
    70    92    93    1
    71    82    83    2
    72    53    52    2
    73    85    86   ar
    74    85    87   ar
    75    86    88   ar
    76    54    51    1
    77    52    51    1
    78    64    63    1
    79    93    94    2
    80    51    50    1
    81    87    89   ar
    82    88    90   ar
    83    63    62    1
    84    89    90   ar
    85    62    61    1
    86    57    58    1
    87    61    58    1
    88    58    59    1
    89    59    60    2
