@<TRIPOS>MOLECULE
tmp/1ac4A01.pdb
 101 99 0 0 0
SMALL
GASTEIGER

@<TRIPOS>ATOM
      1  N         -7.3250   55.0250  106.1210 N.3   172  HIS172     -0.1226
      2  CA        -8.0290   54.2380  107.1410 C.3   172  HIS172      0.1752
      3  C         -8.6860   52.9330  106.6550 C.2   172  HIS172      0.2596
      4  O         -9.2150   52.1320  107.4280 O.2   172  HIS172     -0.2718
      5  CB        -9.0490   55.1110  107.8300 C.3   172  HIS172      0.0759
      6  CG        -8.4650   55.8950  108.9880 C.ar  172  HIS172      0.0818
      7  ND1       -9.1090   56.7420  109.7850 N.ar  172  HIS172     -0.2268
      8  CD2       -7.1940   55.7990  109.4900 C.ar  172  HIS172      0.1154
      9  CE1       -8.3170   57.1480  110.7440 C.ar  172  HIS172      0.1986
     10  NE2       -7.1580   56.5660  110.5450 N.ar  172  HIS172     -0.2212
     11  N         -8.6100   52.6520  105.3640 N.am  173  ALA173     -0.1966
     12  CA        -8.8900   51.3090  104.8750 C.3   173  ALA173      0.1728
     13  C         -7.9020   50.2510  105.3780 C.2   173  ALA173      0.2616
     14  O         -8.1830   49.0340  105.4420 O.2   173  ALA173     -0.2715
     15  CB        -8.8200   51.2720  103.3520 C.3   173  ALA173      0.0334
     16  N         -6.6820   50.7230  105.7030 N.am  174  LEU174     -0.1963
     17  CA        -5.5760   49.8670  106.1160 C.3   174  LEU174      0.1728
     18  C         -5.6690   49.5230  107.5700 C.2   174  LEU174      0.2617
     19  O         -6.0640   50.3730  108.3520 O.2   174  LEU174     -0.2715
     20  CB        -4.2210   50.5880  105.8540 C.3   174  LEU174      0.0311
     21  CG        -3.9700   50.8590  104.3850 C.3   174  LEU174      0.0022
     22  CD1       -2.8430   51.8610  104.2550 C.3   174  LEU174      0.0001
     23  CD2       -3.7180   49.5450  103.6540 C.3   174  LEU174      0.0001
     24  N         -5.3220   48.3080  107.9780 N.am  175  GLY175     -0.1940
     25  CA        -5.2080   47.9890  109.3840 C.3   175  GLY175      0.2014
     26  C         -6.5240   47.8780  110.1270 C.2   175  GLY175      0.2639
     27  O         -7.5230   47.4050  109.5910 O.2   175  GLY175     -0.2714
     28  N         -6.5470   48.3240  111.3660 N.am  176  LYS176     -0.1963
     29  CA        -7.7460   48.2650  112.1760 C.3   176  LYS176      0.1728
     30  C         -7.6030   49.1070  113.4280 C.2   176  LYS176      0.2616
     31  O         -6.5000   49.4550  113.8230 O.2   176  LYS176     -0.2715
     32  CB        -8.0240   46.8110  112.5930 C.3   176  LYS176      0.0311
     33  CG        -7.0210   46.1890  113.5840 C.3   176  LYS176      0.0038
     34  CD        -7.3680   44.7250  113.7790 C.3   176  LYS176      0.0206
     35  CE        -8.6270   44.4820  114.6420 C.3   176  LYS176      0.1093
     36  NZ        -8.2820   44.7550  116.0210 N.3   176  LYS176     -0.1314
     37  N         -8.6710   49.4230  114.1470 N.am  177  THR177     -0.1951
     38  CA        -8.5590   50.0460  115.4490 C.3   177  THR177      0.1897
     39  C         -8.4400   48.9290  116.4750 C.2   177  THR177      0.2313
     40  O         -8.9400   47.8130  116.2190 O.2   177  THR177     -0.2863
     41  CB        -9.8150   50.9280  115.6520 C.3   177  THR177      0.1794
     42  OG1      -11.0090   50.1100  115.6990 O.3   177  THR177     -0.2208
     43  CG2       -9.9680   51.8550  114.4410 C.3   177  THR177      0.0378
     44  N        -12.0980   47.2730  115.7200 N.3   186  GLY186     -0.1210
     45  CA       -12.5830   46.7230  114.4850 C.3   186  GLY186      0.1940
     46  C        -11.8800   47.2000  113.2600 C.2   186  GLY186      0.2454
     47  O        -11.2390   48.2570  113.2480 O.2   186  GLY186     -0.2732
     48  N        -12.0140   46.4640  112.1740 N.am  187  PRO187     -0.2717
     49  CA       -11.5180   46.8570  110.8700 C.3   187  PRO187      0.1535
     50  C        -12.3900   47.8020  110.0650 C.2   187  PRO187      0.2599
     51  O        -13.5340   47.9900  110.4460 O.2   187  PRO187     -0.2715
     52  CB       -11.3120   45.5670  110.1830 C.3   187  PRO187      0.0310
     53  CG       -12.4370   44.7410  110.7210 C.3   187  PRO187      0.0237
     54  CD       -12.5020   45.1010  112.1760 C.3   187  PRO187      0.0939
     55  N        -11.9130   48.3560  108.9470 N.am  188  GLY188     -0.1955
     56  CA       -12.6720   49.2990  108.1410 C.3   188  GLY188      0.1869
     57  C        -13.1460   48.7370  106.8220 C.2   188  GLY188      0.2309
     58  O        -13.8680   49.3480  106.0380 O.2   188  GLY188     -0.2863
     59  N        -12.0790   52.4110  101.5290 N.3   199  PHE199     -0.1241
     60  CA       -12.6660   53.2380  102.5960 C.3   199  PHE199      0.1605
     61  C        -13.8920   54.0860  102.1410 C.2   199  PHE199      0.2264
     62  O        -14.8890   54.2330  102.8380 O.2   199  PHE199     -0.2867
     63  CB       -11.5950   54.1790  103.1560 C.3   199  PHE199      0.0534
     64  CG       -11.9810   55.2590  104.1490 C.ar  199  PHE199     -0.0203
     65  CD1      -12.1010   54.9340  105.4780 C.ar  199  PHE199     -0.0042
     66  CD2      -12.1030   56.5710  103.7070 C.ar  199  PHE199     -0.0042
     67  CE1      -12.3300   55.9340  106.3920 C.ar  199  PHE199     -0.0003
     68  CE2      -12.3250   57.5600  104.6250 C.ar  199  PHE199     -0.0003
     69  CZ       -12.4350   57.2410  105.9740 C.ar  199  PHE199     -0.0000
     70  N        -16.1570   48.8240  110.9210 N.3   227  MET227     -0.1230
     71  CA       -16.4150   49.9860  111.7440 C.3   227  MET227      0.1702
     72  C        -15.8060   51.2290  111.1150 C.2   227  MET227      0.2592
     73  O        -14.9770   51.1880  110.2170 O.2   227  MET227     -0.2718
     74  CB       -15.8580   49.8050  113.1830 C.3   227  MET227      0.0401
     75  CG       -14.3280   49.8050  113.4380 C.3   227  MET227      0.0596
     76  SD       -13.4730   51.4010  113.2990 S.3   227  MET227     -0.1393
     77  CE       -13.7060   51.8740  114.9830 C.3   227  MET227      0.0692
     78  N        -16.3710   52.3580  111.4920 N.am  228  MET228     -0.1965
     79  CA       -15.9300   53.6760  111.1140 C.3   228  MET228      0.1736
     80  C        -15.9120   54.5410  112.3520 C.2   228  MET228      0.2616
     81  O        -16.7220   54.4130  113.2650 O.2   228  MET228     -0.2715
     82  CB       -16.8450   54.3050  110.1420 C.3   228  MET228      0.0427
     83  CG       -16.6580   53.6710  108.8130 C.3   228  MET228      0.0599
     84  SD       -15.2590   54.2960  107.8840 S.3   228  MET228     -0.1393
     85  CE       -15.1660   53.1200  106.5790 C.3   228  MET228      0.0692
     86  N        -14.8900   55.3800  112.4740 N.am  229  LEU229     -0.1977
     87  CA       -14.8190   56.3270  113.5980 C.3   229  LEU229      0.1596
     88  C        -15.8120   57.5110  113.4050 C.2   229  LEU229      0.2287
     89  O        -16.1350   57.8140  112.2380 O.2   229  LEU229     -0.2864
     90  CB       -13.3630   56.8870  113.7240 C.3   229  LEU229      0.0297
     91  CG       -12.1820   55.9300  114.0400 C.3   229  LEU229      0.0022
     92  CD1      -10.8890   56.6000  113.5090 C.3   229  LEU229      0.0001
     93  CD2      -12.1200   55.5840  115.5260 C.3   229  LEU229      0.0001
     94  N        -14.3520   59.6500  110.8940 N.3   232  ASP232     -0.1239
     95  CA       -14.4790   59.1000  109.5270 C.3   232  ASP232      0.1674
     96  C        -15.8780   59.2810  108.8960 C.2   232  ASP232      0.2266
     97  O        -16.0700   59.5380  107.7080 O.2   232  ASP232     -0.2867
     98  CB       -14.1770   57.5520  109.4760 C.3   232  ASP232      0.1410
     99  CG       -12.8070   57.1260  110.0430 C.2   232  ASP232      0.3668
    100  OD1      -11.9000   57.9140  109.8630 O.co2 232  ASP232     -0.2456
    101  OD2      -12.6450   56.0500  110.6260 O.co2 232  ASP232     -0.2456
@<TRIPOS>BOND
     1    59    60    1
     2    61    60    1
     3    61    62    2
     4    60    63    1
     5    63    64    1
     6    15    12    1
     7    23    21    1
     8    66    64   ar
     9    66    68   ar
    10    64    65   ar
    11    22    21    1
    12    21    20    1
    13    68    69   ar
    14    12    11    1
    15    12    13    1
    16    11     3   am
    17    13    14    2
    18    13    16   am
    19    65    67   ar
    20    16    17    1
    21    20    17    1
    22    69    67   ar
    23    58    57    2
    24    17    18    1
    25     1     2    1
    26    85    84    1
    27     3     2    1
    28     3     4    2
    29    57    56    1
    30     2     5    1
    31    18    24   am
    32    18    19    2
    33    97    96    2
    34     5     6    1
    35    84    83    1
    36    24    25    1
    37    56    55    1
    38    83    82    1
    39    96    95    1
    40    55    50   am
    41     6     8   ar
    42     6     7   ar
    43    25    26    1
    44    98    95    1
    45    98    99    1
    46     8    10   ar
    47    95    94    1
    48    27    26    2
    49     7     9   ar
    50   100    99   ar
    51    99   101   ar
    52    50    51    2
    53    50    49    1
    54    26    28   am
    55    82    79    1
    56    52    53    1
    57    52    49    1
    58    73    72    2
    59    10     9   ar
    60    53    54    1
    61    49    48    1
    62    70    71    1
    63    79    78    1
    64    79    80    1
    65    72    78   am
    66    72    71    1
    67    28    29    1
    68    71    74    1
    69    48    54    1
    70    48    46   am
    71    29    32    1
    72    29    30    1
    73    89    88    2
    74    80    86   am
    75    80    81    2
    76    86    87    1
    77    32    33    1
    78    74    75    1
    79    47    46    2
    80    46    45    1
    81    76    75    1
    82    76    77    1
    83    88    87    1
    84    30    31    2
    85    30    37   am
    86    92    91    1
    87    33    34    1
    88    87    90    1
    89    90    91    1
    90    34    35    1
    91    91    93    1
    92    37    38    1
    93    43    41    1
    94    45    44    1
    95    35    36    1
    96    38    41    1
    97    38    39    1
    98    41    42    1
    99    40    39    2
