@<TRIPOS>MOLECULE
tmp/1ac8A01.pdb
 97 95 0 0 0
SMALL
GASTEIGER

@<TRIPOS>ATOM
      1  N         28.6800   88.9500   49.4600 N.3   172  HIS172     -0.1226
      2  CA        29.5400   89.9700   48.8700 C.3   172  HIS172      0.1752
      3  C         30.0000   89.6400   47.4500 C.2   172  HIS172      0.2596
      4  O         30.6900   90.4400   46.8700 O.2   172  HIS172     -0.2718
      5  CB        30.7700   90.2200   49.7500 C.3   172  HIS172      0.0759
      6  CG        30.4800   91.2100   50.8700 C.ar  172  HIS172      0.0818
      7  ND1       31.1900   91.5800   51.9200 N.ar  172  HIS172     -0.2268
      8  CD2       29.3300   91.9600   50.9500 C.ar  172  HIS172      0.1154
      9  CE1       30.5600   92.5000   52.6000 C.ar  172  HIS172      0.1986
     10  NE2       29.4200   92.7200   52.0000 N.ar  172  HIS172     -0.2212
     11  N         29.7200   88.4800   46.8500 N.am  173  ALA173     -0.1966
     12  CA        29.8800   88.2900   45.4000 C.3   173  ALA173      0.1728
     13  C         28.9300   89.1900   44.5800 C.2   173  ALA173      0.2616
     14  O         29.1900   89.5100   43.4300 O.2   173  ALA173     -0.2715
     15  CB        29.5500   86.8700   44.9800 C.3   173  ALA173      0.0334
     16  N         27.8400   89.6200   45.2000 N.am  174  LEU174     -0.1963
     17  CA        26.8000   90.4600   44.6200 C.3   174  LEU174      0.1728
     18  C         27.0800   91.9400   44.6200 C.2   174  LEU174      0.2617
     19  O         27.6000   92.4400   45.6100 O.2   174  LEU174     -0.2715
     20  CB        25.4600   90.2600   45.3600 C.3   174  LEU174      0.0311
     21  CG        24.9100   88.8700   45.4400 C.3   174  LEU174      0.0022
     22  CD1       23.8300   88.8100   46.5000 C.3   174  LEU174      0.0001
     23  CD2       24.4600   88.4700   44.0600 C.3   174  LEU174      0.0001
     24  N         26.7100   92.6700   43.5600 N.am  175  GLY175     -0.1940
     25  CA        26.8000   94.1200   43.5200 C.3   175  GLY175      0.2014
     26  C         28.2200   94.6600   43.5600 C.2   175  GLY175      0.2639
     27  O         29.1300   94.1400   42.9300 O.2   175  GLY175     -0.2714
     28  N         28.4400   95.7500   44.2900 N.am  176  LYS176     -0.1963
     29  CA        29.7700   96.3200   44.3400 C.3   176  LYS176      0.1728
     30  C         29.8900   97.3400   45.4400 C.2   176  LYS176      0.2616
     31  O         28.8900   97.8000   46.0000 O.2   176  LYS176     -0.2715
     32  CB        30.1100   97.0200   43.0100 C.3   176  LYS176      0.0311
     33  CG        29.2400   98.2500   42.7200 C.3   176  LYS176      0.0038
     34  CD        29.5600   98.9300   41.3800 C.3   176  LYS176      0.0206
     35  CE        30.8400   99.7600   41.3600 C.3   176  LYS176      0.1093
     36  NZ        30.7100  100.9800   42.1400 N.3   176  LYS176     -0.1314
     37  N         31.1100   97.7500   45.7700 N.am  177  THR177     -0.1951
     38  CA        31.2400   98.8800   46.6800 C.3   177  THR177      0.1897
     39  C         31.3100  100.1500   45.8500 C.2   177  THR177      0.2313
     40  O         31.6900  100.2000   44.6700 O.2   177  THR177     -0.2863
     41  CB        32.5100   98.7600   47.5500 C.3   177  THR177      0.1794
     42  OG1       33.6100   98.7700   46.6500 O.3   177  THR177     -0.2208
     43  CG2       32.5400   97.4800   48.3700 C.3   177  THR177      0.0378
     44  N         33.7800   95.9500   42.1400 N.3   187  PRO187     -0.2102
     45  CA        33.0600   94.7000   42.3000 C.3   187  PRO187      0.1504
     46  C         33.9800   93.5900   42.7700 C.2   187  PRO187      0.2576
     47  O         35.2000   93.6900   42.6800 O.2   187  PRO187     -0.2718
     48  CB        32.4600   94.4700   40.9400 C.3   187  PRO187      0.0282
     49  CG        33.6000   94.9000   40.0300 C.3   187  PRO187      0.0208
     50  CD        34.3000   96.0500   40.7800 C.3   187  PRO187      0.0893
     51  N         33.4500   92.4700   43.2300 N.am  188  GLY188     -0.1957
     52  CA        34.2600   91.3600   43.7200 C.3   188  GLY188      0.1869
     53  C         34.3300   90.2100   42.7600 C.2   188  GLY188      0.2309
     54  O         34.9200   89.1600   43.0100 O.2   188  GLY188     -0.2863
     55  N         32.5300   84.3600   45.2900 N.3   199  PHE199     -0.1241
     56  CA        33.2800   85.0700   46.3000 C.3   199  PHE199      0.1605
     57  C         34.4100   84.2000   46.8600 C.2   199  PHE199      0.2264
     58  O         35.5500   84.6400   47.0000 O.2   199  PHE199     -0.2867
     59  CB        32.3300   85.4700   47.3800 C.3   199  PHE199      0.0534
     60  CG        32.9400   86.0900   48.6200 C.ar  199  PHE199     -0.0203
     61  CD1       33.1900   87.4500   48.6500 C.ar  199  PHE199     -0.0042
     62  CD2       33.2000   85.2900   49.7100 C.ar  199  PHE199     -0.0042
     63  CE1       33.6900   88.0000   49.8000 C.ar  199  PHE199     -0.0003
     64  CE2       33.7000   85.8700   50.8600 C.ar  199  PHE199     -0.0003
     65  CZ        33.9400   87.2200   50.9000 C.ar  199  PHE199     -0.0000
     66  N         37.9200   93.6200   43.6400 N.3   227  MET227     -0.1230
     67  CA        38.4100   94.1500   44.8800 C.3   227  MET227      0.1702
     68  C         37.8100   93.3600   46.0400 C.2   227  MET227      0.2592
     69  O         36.7900   92.7000   45.9000 O.2   227  MET227     -0.2718
     70  CB        38.0400   95.6300   44.9900 C.3   227  MET227      0.0401
     71  CG        36.6100   96.0900   45.2700 C.3   227  MET227      0.0596
     72  SD        35.9400   95.7300   46.9200 S.3   227  MET227     -0.1393
     73  CE        36.6700   97.0000   47.9000 C.3   227  MET227      0.0692
     74  N         38.4900   93.3300   47.1700 N.am  228  MET228     -0.1965
     75  CA        37.9800   92.7300   48.3900 C.3   228  MET228      0.1736
     76  C         38.2200   93.7300   49.5100 C.2   228  MET228      0.2616
     77  O         39.1700   94.5200   49.5000 O.2   228  MET228     -0.2715
     78  CB        38.7100   91.4200   48.7400 C.3   228  MET228      0.0427
     79  CG        38.3600   90.2100   47.8900 C.3   228  MET228      0.0599
     80  SD        36.7300   89.4900   48.2400 S.3   228  MET228     -0.1393
     81  CE        36.5000   88.4100   46.8400 C.3   228  MET228      0.0692
     82  N         37.2800   93.8000   50.4500 N.am  229  LEU229     -0.1977
     83  CA        37.4100   94.6600   51.6300 C.3   229  LEU229      0.1596
     84  C         38.4100   94.0400   52.6200 C.2   229  LEU229      0.2287
     85  O         38.5600   92.8100   52.5900 O.2   229  LEU229     -0.2864
     86  CB        36.0500   94.8100   52.3600 C.3   229  LEU229      0.0297
     87  CG        34.8700   95.4900   51.7000 C.3   229  LEU229      0.0022
     88  CD1       33.5600   95.1100   52.4200 C.3   229  LEU229      0.0001
     89  CD2       35.1500   96.9700   51.6800 C.3   229  LEU229      0.0001
     90  N         36.7600   91.2500   54.2600 N.3   232  ASP232     -0.1239
     91  CA        36.5800   90.1000   53.3400 C.3   232  ASP232      0.1674
     92  C         37.8000   89.1900   53.1800 C.2   232  ASP232      0.2266
     93  O         37.7500   87.9600   53.1700 O.2   232  ASP232     -0.2867
     94  CB        36.2600   90.5100   51.9100 C.3   232  ASP232      0.1410
     95  CG        34.9000   91.1600   51.6700 C.2   232  ASP232      0.3668
     96  OD1       33.9300   90.8500   52.3600 O.co2 232  ASP232     -0.2456
     97  OD2       34.8300   91.9700   50.7500 O.co2 232  ASP232     -0.2456
@<TRIPOS>BOND
     1    49    50    1
     2    49    48    1
     3    50    44    1
     4    48    45    1
     5    35    34    1
     6    35    36    1
     7    34    33    1
     8    44    45    1
     9    45    46    1
    10    47    46    2
    11    33    32    1
    12    53    54    2
    13    53    52    1
    14    46    51   am
    15    27    26    2
    16    32    29    1
    17    51    52    1
    18    14    13    2
    19    25    26    1
    20    25    24    1
    21    26    28   am
    22    24    18   am
    23    66    67    1
    24    23    21    1
    25    28    29    1
    26    29    30    1
    27    13    16   am
    28    13    12    1
    29    18    17    1
    30    18    19    2
    31    17    16    1
    32    17    20    1
    33    40    39    2
    34    67    70    1
    35    67    68    1
    36    15    12    1
    37    70    71    1
    38    71    72    1
    39    55    56    1
    40    20    21    1
    41    12    11    1
    42    30    37   am
    43    30    31    2
    44    21    22    1
    45    37    38    1
    46    39    38    1
    47    69    68    2
    48    68    74   am
    49    56    57    1
    50    56    59    1
    51    42    41    1
    52    38    41    1
    53    81    80    1
    54    11     3   am
    55    57    58    2
    56     4     3    2
    57    72    73    1
    58    74    75    1
    59    59    60    1
    60     3     2    1
    61    41    43    1
    62    79    80    1
    63    79    78    1
    64    75    78    1
    65    75    76    1
    66    60    61   ar
    67    60    62   ar
    68    61    63   ar
    69     2     1    1
    70     2     5    1
    71    77    76    2
    72    76    82   am
    73    62    64   ar
    74     5     6    1
    75    63    65   ar
    76    82    83    1
    77    97    95   ar
    78    64    65   ar
    79     6     8   ar
    80     6     7   ar
    81     8    10   ar
    82    83    86    1
    83    83    84    1
    84    95    94    1
    85    95    96   ar
    86    89    87    1
    87    87    86    1
    88    87    88    1
    89    94    91    1
    90     7     9   ar
    91    10     9   ar
    92    85    84    2
    93    93    92    2
    94    92    91    1
    95    91    90    1
