@<TRIPOS>MOLECULE
tmp/1acjA00.pdb
 172 170 0 0 0
SMALL
GASTEIGER

@<TRIPOS>ATOM
      1  N         -4.1830   69.6980   70.6260 N.3    69  ASP69      -0.1239
      2  CA        -3.1270   69.5440   71.5940 C.3    69  ASP69       0.1674
      3  C         -3.3020   70.5560   72.6580 C.2    69  ASP69       0.2266
      4  O         -3.2060   71.7430   72.3960 O.2    69  ASP69      -0.2867
      5  CB        -1.7540   69.8060   70.9550 C.3    69  ASP69       0.1410
      6  CG        -0.5690   69.7120   71.9380 C.2    69  ASP69       0.3668
      7  OD1       -0.7300   69.1820   73.0350 O.co2  69  ASP69      -0.2456
      8  OD2        0.5090   70.1790   71.5990 O.co2  69  ASP69      -0.2456
      9  N          3.8100   78.2350   71.1230 N.3    77  GLY77      -0.1210
     10  CA         4.6160   77.1820   70.5270 C.3    77  GLY77       0.1956
     11  C          3.8640   75.8980   70.2040 C.2    77  GLY77       0.2612
     12  O          4.2770   75.1330   69.3510 O.2    77  GLY77      -0.2717
     13  N          2.7630   75.6360   70.9080 N.am   78  SER78      -0.1952
     14  CA         2.0280   74.4190   70.6220 C.3    78  SER78       0.1924
     15  C          0.7850   74.7730   69.8480 C.2    78  SER78       0.2314
     16  O          0.3840   74.1340   68.8810 O.2    78  SER78      -0.2863
     17  CB         1.7230   73.6120   71.9060 C.3    78  SER78       0.2116
     18  OG         0.8310   74.2630   72.8180 O.3    78  SER78      -0.2180
     19  N          0.1220   75.0150   65.9870 N.3    81  TRP81      -0.1227
     20  CA        -0.1540   73.8230   65.2110 C.3    81  TRP81       0.1737
     21  C         -1.5500   73.2490   65.3960 C.2    81  TRP81       0.2595
     22  O         -1.8130   72.1680   64.8770 O.2    81  TRP81      -0.2718
     23  CB         0.7890   72.6700   65.6250 C.3    81  TRP81       0.0564
     24  CG         2.2450   73.0440   65.5760 C.ar   81  TRP81       0.0003
     25  CD1        3.0280   73.4420   66.6720 C.ar   81  TRP81       0.0946
     26  CD2        3.0620   73.0980   64.4370 C.ar   81  TRP81       0.0152
     27  NE1        4.2770   73.7470   66.2660 N.ar   81  TRP81      -0.2442
     28  CE2        4.3780   73.5660   64.9110 C.ar   81  TRP81       0.0810
     29  CE3        2.8580   72.8670   63.0710 C.ar   81  TRP81       0.0012
     30  CZ2        5.4060   73.7660   63.9770 C.ar   81  TRP81       0.0191
     31  CZ3        3.9090   73.0890   62.1670 C.ar   81  TRP81       0.0001
     32  CH2        5.1670   73.5280   62.6150 C.ar   81  TRP81       0.0015
     33  N         -2.4390   73.9080   66.1310 N.am   82  ASN82      -0.1974
     34  CA        -3.7670   73.2960   66.3380 C.3    82  ASN82       0.1688
     35  C         -4.7840   73.8340   65.3590 C.2    82  ASN82       0.2292
     36  O         -4.6430   74.9720   64.9160 O.2    82  ASN82      -0.2864
     37  CB        -4.3090   73.6420   67.7300 C.3    82  ASN82       0.1181
     38  CG        -3.7650   72.7180   68.7780 C.2    82  ASN82       0.2629
     39  OD1       -2.9680   71.8460   68.5020 O.2    82  ASN82      -0.2716
     40  ND2       -4.2020   72.9070   70.0030 N.am   82  ASN82      -0.0877
     41  N          1.8860   67.8620   57.6560 N.3   114  GLY114     -0.1210
     42  CA         2.3150   66.8120   58.5500 C.3   114  GLY114      0.1956
     43  C          1.3780   66.7720   59.7250 C.2   114  GLY114      0.2612
     44  O          0.3610   67.4690   59.7790 O.2   114  GLY114     -0.2717
     45  N          1.8020   65.9350   60.6910 N.am  115  GLY115     -0.1956
     46  CA         1.0260   65.7350   61.9190 C.3   115  GLY115      0.1869
     47  C          0.9690   64.2740   62.3770 C.2   115  GLY115      0.2309
     48  O         -0.0080   63.8450   62.9780 O.2   115  GLY115     -0.2863
     49  N         -2.2520   61.8170   62.5540 N.3   118  TYR118     -0.1227
     50  CA        -3.4300   62.0230   63.4380 C.3   118  TYR118      0.1736
     51  C         -3.8340   63.4870   63.5330 C.2   118  TYR118      0.2596
     52  O         -4.8360   63.8060   64.1700 O.2   118  TYR118     -0.2718
     53  CB        -3.2220   61.5170   64.8910 C.3   118  TYR118      0.0548
     54  CG        -2.1620   62.2990   65.6370 C.ar  118  TYR118     -0.0200
     55  CD1       -0.8210   61.9130   65.5450 C.ar  118  TYR118     -0.0009
     56  CD2       -2.4980   63.4460   66.3780 C.ar  118  TYR118     -0.0009
     57  CE1        0.1690   62.6680   66.1730 C.ar  118  TYR118      0.0417
     58  CE2       -1.5110   64.2070   67.0100 C.ar  118  TYR118      0.0417
     59  CZ        -0.1690   63.8110   66.9120 C.ar  118  TYR118      0.1957
     60  OH         0.8520   64.5050   67.5420 O.3   118  TYR118     -0.2866
     61  N         -3.0430   64.3880   62.9510 N.am  119  SER119     -0.1952
     62  CA        -3.4330   65.7830   63.0280 C.3   119  SER119      0.1924
     63  C         -2.9960   66.4690   61.7460 C.2   119  SER119      0.2314
     64  O         -2.3430   65.8400   60.9170 O.2   119  SER119     -0.2863
     65  CB        -2.8330   66.3900   64.3090 C.3   119  SER119      0.2116
     66  OG        -1.3850   66.3990   64.2780 O.3   119  SER119     -0.2180
     67  N          1.3810   77.8440   57.0630 N.3   127  TYR127     -0.1241
     68  CA         1.1760   77.1880   55.7830 C.3   127  TYR127      0.1605
     69  C          0.4290   78.1570   54.8670 C.2   127  TYR127      0.2264
     70  O         -0.2280   77.7970   53.8940 O.2   127  TYR127     -0.2867
     71  CB         0.2990   75.9340   55.9520 C.3   127  TYR127      0.0534
     72  CG         0.8250   74.8230   56.8570 C.ar  127  TYR127     -0.0201
     73  CD1        2.1800   74.6730   57.1970 C.ar  127  TYR127     -0.0009
     74  CD2       -0.0920   73.8840   57.3630 C.ar  127  TYR127     -0.0009
     75  CE1        2.5910   73.6110   58.0220 C.ar  127  TYR127      0.0417
     76  CE2        0.3200   72.8120   58.1710 C.ar  127  TYR127      0.0417
     77  CZ         1.6710   72.6660   58.5000 C.ar  127  TYR127      0.1957
     78  OH         2.1430   71.5950   59.2440 O.3   127  TYR127     -0.2866
     79  N          6.0020   67.8580   55.0240 N.3   196  GLU196     -0.1231
     80  CA         6.9010   67.6380   56.1740 C.3   196  GLU196      0.1699
     81  C          6.3610   66.6090   57.1560 C.2   196  GLU196      0.2592
     82  O          5.1530   66.5030   57.3260 O.2   196  GLU196     -0.2718
     83  CB         7.0900   68.9860   56.8780 C.3   196  GLU196      0.0402
     84  CG         8.0630   69.0090   58.0690 C.3   196  GLU196      0.1161
     85  CD         7.3620   68.7690   59.4010 C.2   196  GLU196      0.3649
     86  OE1        6.1540   68.6320   59.4120 O.co2 196  GLU196     -0.2457
     87  OE2        8.0120   68.7110   60.4310 O.co2 196  GLU196     -0.2457
     88  N          7.2420   65.8570   57.8330 N.am  197  SER197     -0.1952
     89  CA         6.7780   64.8550   58.7930 C.3   197  SER197      0.1924
     90  C          5.9380   63.8600   58.0010 C.2   197  SER197      0.2314
     91  O          6.4030   63.2920   57.0250 O.2   197  SER197     -0.2863
     92  CB         6.1510   65.5190   60.0500 C.3   197  SER197      0.2116
     93  OG         5.6340   64.6530   61.0930 O.3   197  SER197     -0.2180
     94  N         10.8310   67.4350   70.5030 N.3   327  PHE327     -0.1241
     95  CA         9.3880   67.5040   70.6700 C.3   327  PHE327      0.1605
     96  C          8.8010   66.2220   71.2330 C.2   327  PHE327      0.2264
     97  O          7.9950   66.2500   72.1510 O.2   327  PHE327     -0.2867
     98  CB         8.7970   67.9410   69.3100 C.3   327  PHE327      0.0534
     99  CG         7.3610   67.5700   69.0900 C.ar  327  PHE327     -0.0203
    100  CD1        6.3550   68.0740   69.9320 C.ar  327  PHE327     -0.0042
    101  CD2        7.0290   66.6990   68.0500 C.ar  327  PHE327     -0.0042
    102  CE1        5.0160   67.6940   69.7460 C.ar  327  PHE327     -0.0003
    103  CE2        5.7020   66.3090   67.8690 C.ar  327  PHE327     -0.0003
    104  CZ         4.6920   66.8030   68.7190 C.ar  327  PHE327     -0.0000
    105  N          7.2800   65.7850   74.9750 N.3   331  TYR331     -0.1241
    106  CA         5.8710   65.4370   75.1520 C.3   331  TYR331      0.1605
    107  C          5.6290   64.1080   75.7860 C.2   331  TYR331      0.2264
    108  O          4.5170   63.9010   76.2490 O.2   331  TYR331     -0.2867
    109  CB         5.0540   65.4770   73.8350 C.3   331  TYR331      0.0534
    110  CG         4.5210   66.8520   73.5120 C.ar  331  TYR331     -0.0201
    111  CD1        5.4090   67.9070   73.2540 C.ar  331  TYR331     -0.0009
    112  CD2        3.1370   67.0790   73.4600 C.ar  331  TYR331     -0.0009
    113  CE1        4.9120   69.1810   72.9460 C.ar  331  TYR331      0.0417
    114  CE2        2.6330   68.3490   73.1550 C.ar  331  TYR331      0.0417
    115  CZ         3.5210   69.3990   72.8900 C.ar  331  TYR331      0.1957
    116  OH         3.0490   70.6510   72.5540 O.3   331  TYR331     -0.2866
    117  N         10.3220   77.9250   72.3770 N.3   429  TRP429     -0.1241
    118  CA        10.5490   76.6640   73.0560 C.3   429  TRP429      0.1605
    119  C         11.9280   76.8250   73.7090 C.2   429  TRP429      0.2264
    120  O         12.6980   77.6770   73.2900 O.2   429  TRP429     -0.2867
    121  CB        10.4910   75.4910   72.0500 C.3   429  TRP429      0.0550
    122  CG         9.0870   75.2150   71.5490 C.ar  429  TRP429      0.0003
    123  CD1        8.4940   75.6960   70.3520 C.ar  429  TRP429      0.0946
    124  CD2        8.1130   74.4170   72.1840 C.ar  429  TRP429      0.0152
    125  NE1        7.2170   75.2300   70.2220 N.ar  429  TRP429     -0.2442
    126  CE2        6.9190   74.4340   71.3050 C.ar  429  TRP429      0.0810
    127  CE3        8.0580   73.7110   73.3880 C.ar  429  TRP429      0.0012
    128  CZ2        5.7710   73.7270   71.7070 C.ar  429  TRP429      0.0191
    129  CZ3        6.8840   73.0270   73.7520 C.ar  429  TRP429      0.0001
    130  CH2        5.7570   73.0280   72.9210 C.ar  429  TRP429      0.0015
    131  N         15.7580   72.2160   73.4360 N.3   433  MET433     -0.1245
    132  CA        15.1260   71.5340   72.3180 C.3   433  MET433      0.1570
    133  C         15.8590   71.8300   70.9840 C.2   433  MET433      0.2261
    134  O         15.7150   71.1370   69.9850 O.2   433  MET433     -0.2867
    135  CB        13.6320   71.8730   72.2860 C.3   433  MET433      0.0387
    136  CG        12.9130   71.3950   73.5430 C.3   433  MET433      0.0595
    137  SD        11.1900   71.9740   73.5240 S.3   433  MET433     -0.1393
    138  CE        10.4870   70.8200   72.3090 C.3   433  MET433      0.0692
    139  N         14.0620   72.3710   66.3790 N.3   436  ILE436     -0.1231
    140  CA        12.9630   71.4340   66.4930 C.3   436  ILE436      0.1692
    141  C         12.3150   70.9810   65.1990 C.2   436  ILE436      0.2592
    142  O         12.2400   71.6450   64.1660 O.2   436  ILE436     -0.2718
    143  CB        11.9280   72.1340   67.4120 C.3   436  ILE436      0.0266
    144  CG1       12.5360   72.5530   68.7640 C.3   436  ILE436      0.0019
    145  CG2       10.6410   71.3370   67.6870 C.3   436  ILE436      0.0020
    146  CD1       11.7380   73.6720   69.4350 C.3   436  ILE436      0.0001
    147  N         11.7870   69.7670   65.3150 N.am  437  HIS437     -0.1962
    148  CA        11.0530   69.1080   64.2520 C.3   437  HIS437      0.1787
    149  C          9.9110   70.0510   63.9340 C.2   437  HIS437      0.2621
    150  O          9.2080   70.4620   64.8290 O.2   437  HIS437     -0.2715
    151  CB        10.5500   67.7770   64.8390 C.3   437  HIS437      0.0785
    152  CG         9.6570   66.9460   63.9480 C.ar  437  HIS437      0.0821
    153  ND1       10.0860   66.0140   63.0730 N.ar  437  HIS437     -0.2267
    154  CD2        8.2400   66.8950   63.9840 C.ar  437  HIS437      0.1154
    155  CE1        8.9750   65.3950   62.6000 C.ar  437  HIS437      0.1986
    156  NE2        7.8450   65.9120   63.1370 N.ar  437  HIS437     -0.2212
    157  N          9.7820   70.4430   62.6650 N.am  438  GLY438     -0.1940
    158  CA         8.7130   71.3580   62.2930 C.3   438  GLY438      0.2014
    159  C          9.1800   72.7720   62.1740 C.2   438  GLY438      0.2638
    160  O          8.5650   73.5830   61.5070 O.2   438  GLY438     -0.2714
    161  N         10.3560   73.0650   62.7060 N.am  439  TYR439     -0.1973
    162  CA        10.7550   74.4750   62.6840 C.3   439  TYR439      0.1639
    163  C         11.3640   75.1190   61.4450 C.2   439  TYR439      0.2290
    164  O         11.6720   76.3050   61.4570 O.2   439  TYR439     -0.2864
    165  CB        11.3690   74.8150   64.0790 C.3   439  TYR439      0.0560
    166  CG        10.2040   74.9970   65.0470 C.ar  439  TYR439     -0.0198
    167  CD1        9.5040   73.8890   65.5670 C.ar  439  TYR439     -0.0009
    168  CD2        9.7150   76.2910   65.2920 C.ar  439  TYR439     -0.0009
    169  CE1        8.3200   74.0700   66.2860 C.ar  439  TYR439      0.0417
    170  CE2        8.5310   76.4760   66.0010 C.ar  439  TYR439      0.0417
    171  CZ         7.8360   75.3690   66.4900 C.ar  439  TYR439      0.1957
    172  OH         6.6600   75.5930   67.1640 O.3   439  TYR439     -0.2866
@<TRIPOS>BOND
     1    70    69    2
     2    69    68    1
     3    79    80    1
     4    68    71    1
     5    68    67    1
     6    71    72    1
     7    80    83    1
     8    80    81    1
     9    72    73   ar
    10    72    74   ar
    11    83    84    1
    12    91    90    2
    13    81    82    2
    14    81    88   am
    15    73    75   ar
    16    74    76   ar
    17    41    42    1
    18    88    89    1
    19    90    89    1
    20    75    77   ar
    21    84    85    1
    22    76    77   ar
    23    77    78    1
    24    42    43    1
    25    89    92    1
    26    85    86   ar
    27    85    87   ar
    28    43    44    2
    29    43    45   am
    30    92    93    1
    31    45    46    1
    32    64    63    2
    33   163   164    2
    34   163   162    1
    35   160   159    2
    36    63    62    1
    37    46    47    1
    38    31    32   ar
    39    31    29   ar
    40   159   158    1
    41   159   161   am
    42   158   157    1
    43    47    48    2
    44    49    50    1
    45   155   153   ar
    46   155   156   ar
    47    32    30   ar
    48   157   149   am
    49   162   161    1
    50   162   165    1
    51    61    62    1
    52    61    51   am
    53    62    65    1
    54    29    26   ar
    55   153   152   ar
    56   156   154   ar
    57    50    51    1
    58    50    53    1
    59    51    52    2
    60   149   148    1
    61   149   150    2
    62   152   154   ar
    63   152   151    1
    64    30    28   ar
    65   165   166    1
    66   142   141    2
    67   148   151    1
    68   148   147    1
    69    66    65    1
    70    26    28   ar
    71    26    24   ar
    72    22    21    2
    73    53    54    1
    74    28    27   ar
    75    36    35    2
    76   166   168   ar
    77   166   167   ar
    78   141   147   am
    79   141   140    1
    80    20    21    1
    81    20    23    1
    82    20    19    1
    83   168   170   ar
    84    35    34    1
    85    21    33   am
    86    55    54   ar
    87    55    57   ar
    88   167   169   ar
    89    24    23    1
    90    24    25   ar
    91    54    56   ar
    92   170   171   ar
    93    33    34    1
    94    57    59   ar
    95    27    25   ar
    96   169   171   ar
    97    34    37    1
    98    56    58   ar
    99   139   140    1
   100   171   172    1
   101   140   143    1
   102    59    58   ar
   103    59    60    1
   104   143   145    1
   105   143   144    1
   106    37    38    1
   107   103   101   ar
   108   103   104   ar
   109   101    99   ar
   110    39    38    2
   111   104   102   ar
   112   144   146    1
   113    38    40   am
   114    16    15    2
   115    99    98    1
   116    99   100   ar
   117    98    95    1
   118    12    11    2
   119   102   100   ar
   120    15    14    1
   121   134   133    2
   122    11    10    1
   123    11    13   am
   124   125   123   ar
   125   125   126   ar
   126   123   122   ar
   127    94    95    1
   128    10     9    1
   129    14    13    1
   130    14    17    1
   131     1     2    1
   132    95    96    1
   133     5     2    1
   134     5     6    1
   135   133   132    1
   136    96    97    2
   137   126   128   ar
   138   126   124   ar
   139   122   121    1
   140   122   124   ar
   141     2     3    1
   142     8     6   ar
   143   128   130   ar
   144    17    18    1
   145     6     7   ar
   146   121   118    1
   147   124   127   ar
   148   135   132    1
   149   135   136    1
   150   138   137    1
   151   132   131    1
   152   117   118    1
   153     4     3    2
   154   116   115    1
   155   115   113   ar
   156   115   114   ar
   157   130   129   ar
   158   113   111   ar
   159   118   119    1
   160   114   112   ar
   161   111   110   ar
   162   120   119    2
   163   127   129   ar
   164   112   110   ar
   165   110   109    1
   166   137   136    1
   167   109   106    1
   168   105   106    1
   169   106   107    1
   170   107   108    2
