@<TRIPOS>MOLECULE
tmp/1aczA01.pdb
 89 88 0 0 0
SMALL
GASTEIGER

@<TRIPOS>ATOM
      1  N         -6.4420    4.6840    7.9960 N.3    14  THR14      -0.1218
      2  CA        -7.2410    5.9240    8.2110 C.3    14  THR14       0.1862
      3  C         -6.3400    7.1510    8.1100 C.2    14  THR14       0.2287
      4  O         -5.5460    7.4110    8.9880 O.2    14  THR14      -0.2866
      5  CB        -7.9140    5.8810    9.5840 C.3    14  THR14       0.1770
      6  OG1       -8.4800    4.5940    9.7920 O.3    14  THR14      -0.2211
      7  CG2       -9.0150    6.9410    9.6480 C.3    14  THR14       0.0375
      8  N         -7.4670   10.1340    5.9080 N.3    16  THR16      -0.1203
      9  CA        -8.2450   11.1910    5.1470 C.3    16  THR16       0.1994
     10  C         -7.5540   11.5930    3.8160 C.2    16  THR16       0.2619
     11  O         -6.3820   11.3870    3.6190 O.2    16  THR16      -0.2717
     12  CB        -8.3950   12.4320    6.0300 C.3    16  THR16       0.1784
     13  OG1       -9.4940   13.2070    5.5730 O.3    16  THR16      -0.2211
     14  CG2       -7.1160   13.2600    5.9550 C.3    16  THR16       0.0376
     15  N         -8.2710   12.1920    2.8990 N.am   17  THR17      -0.1938
     16  CA        -7.6140   12.6000    1.6140 C.3    17  THR17       0.2028
     17  C         -8.1780   13.9230    1.0800 C.2    17  THR17       0.2643
     18  O         -8.7010   14.7380    1.8140 O.2    17  THR17      -0.2714
     19  CB        -7.8470   11.5040    0.5820 C.3    17  THR17       0.1808
     20  OG1       -6.8130   11.5300   -0.3800 O.3    17  THR17      -0.2208
     21  CG2       -9.1950   11.7090   -0.1090 C.3    17  THR17       0.0379
     22  N         -8.0710   14.1240   -0.2140 N.am   18  THR18      -0.1936
     23  CA        -8.5940   15.3750   -0.8300 C.3    18  THR18       0.2028
     24  C         -8.9300   15.1370   -2.3000 C.2    18  THR18       0.2642
     25  O         -8.4120   15.7930   -3.1820 O.2    18  THR18      -0.2714
     26  CB        -7.5500   16.4800   -0.7130 C.3    18  THR18       0.1808
     27  OG1       -7.9110   17.5640   -1.5570 O.3    18  THR18      -0.2208
     28  CG2       -6.1710   15.9450   -1.1200 C.3    18  THR18       0.0379
     29  N         -9.8230   14.2210   -2.5400 N.am   19  TYR19      -0.1973
     30  CA       -10.2730   13.9010   -3.9290 C.3    19  TYR19       0.1639
     31  C         -9.0970   13.9730   -4.9200 C.2    19  TYR19       0.2290
     32  O         -9.2800   14.2630   -6.0860 O.2    19  TYR19      -0.2864
     33  CB       -11.3790   14.8970   -4.3180 C.3    19  TYR19       0.0560
     34  CG       -12.3530   14.2630   -5.2990 C.ar   19  TYR19      -0.0198
     35  CD1      -13.3090   13.3260   -4.8630 C.ar   19  TYR19      -0.0009
     36  CD2      -12.3040   14.6100   -6.6540 C.ar   19  TYR19      -0.0009
     37  CE1      -14.1810   12.7440   -5.7500 C.ar   19  TYR19       0.0417
     38  CE2      -13.1990   14.0210   -7.5590 C.ar   19  TYR19       0.0417
     39  CZ       -14.1360   13.0820   -7.1070 C.ar   19  TYR19       0.1957
     40  OH       -15.0180   12.5000   -7.9950 O.3    19  TYR19      -0.2866
     41  N        -13.0170    4.2310   -3.4720 N.3    46  ASP46      -0.1225
     42  CA       -14.0890    3.8100   -4.4260 C.3    46  ASP46       0.1805
     43  C        -15.4200    4.2680   -3.8370 C.2    46  ASP46       0.2598
     44  O        -16.3600    4.5850   -4.5390 O.2    46  ASP46      -0.2718
     45  CB       -14.1080    2.2890   -4.5950 C.3    46  ASP46       0.1424
     46  CG       -14.4450    1.6270   -3.2590 C.2    46  ASP46       0.3668
     47  OD1      -13.9760    2.1120   -2.2440 O.co2  46  ASP46      -0.2456
     48  OD2      -15.1680    0.6440   -3.2740 O.co2  46  ASP46      -0.2456
     49  N        -15.4810    4.3210   -2.5350 N.am   47  LYS47      -0.1966
     50  CA       -16.7160    4.7760   -1.8380 C.3    47  LYS47       0.1728
     51  C        -16.4310    6.1680   -1.2750 C.2    47  LYS47       0.2616
     52  O        -17.1990    7.0910   -1.4490 O.2    47  LYS47      -0.2715
     53  CB       -17.0600    3.8080   -0.6920 C.3    47  LYS47       0.0311
     54  CG       -16.1750    2.5580   -0.7800 C.3    47  LYS47       0.0038
     55  CD       -16.5500    1.5700    0.3230 C.3    47  LYS47       0.0206
     56  CE       -15.5700    0.3930    0.3010 C.3    47  LYS47       0.1093
     57  NZ       -16.3310   -0.8850    0.2050 N.3    47  LYS47      -0.1314
     58  N        -15.3150    6.3010   -0.6010 N.am   48  TYR48      -0.1960
     59  CA       -14.8960    7.6010   -0.0060 C.3    48  TYR48       0.1771
     60  C        -14.7560    8.7120   -1.0970 C.2    48  TYR48       0.2620
     61  O        -15.6390    8.9130   -1.8870 O.2    48  TYR48      -0.2715
     62  CB       -13.5500    7.3690    0.6630 C.3    48  TYR48       0.0574
     63  CG       -13.7180    7.1090    2.1340 C.ar   48  TYR48      -0.0198
     64  CD1      -14.8760    6.4850    2.5740 C.ar   48  TYR48      -0.0009
     65  CD2      -12.7240    7.5040    3.0650 C.ar   48  TYR48      -0.0009
     66  CE1      -15.0640    6.2360    3.9270 C.ar   48  TYR48       0.0417
     67  CE2      -12.9180    7.2670    4.4240 C.ar   48  TYR48       0.0417
     68  CZ       -14.0890    6.6250    4.8620 C.ar   48  TYR48       0.1957
     69  OH       -14.2860    6.3880    6.2070 O.3    48  TYR48      -0.2866
     70  N        -13.6580    9.4570   -1.1310 N.am   49  THR49      -0.1937
     71  CA       -13.5110   10.5660   -2.1380 C.3    49  THR49       0.2028
     72  C        -13.1740    9.9450   -3.4970 C.2    49  THR49       0.2642
     73  O        -13.4650    8.7980   -3.7620 O.2    49  THR49      -0.2714
     74  CB       -12.3160   11.4730   -1.7670 C.3    49  THR49       0.1808
     75  OG1      -11.9880   11.3120   -0.4300 O.3    49  THR49      -0.2208
     76  CG2      -12.7010   12.9350   -1.9190 C.3    49  THR49       0.0379
     77  N        -12.5150   10.6840   -4.3400 N.am   50  SER50      -0.1949
     78  CA       -12.0880   10.1180   -5.6420 C.3    50  SER50       0.1924
     79  C        -10.6650    9.6550   -5.4480 C.2    50  SER50       0.2314
     80  O        -10.1930    8.7440   -6.0980 O.2    50  SER50      -0.2863
     81  CB       -12.1220   11.1570   -6.7600 C.3    50  SER50       0.2116
     82  OG       -11.0590   10.8980   -7.6680 O.3    50  SER50      -0.2180
     83  N         -9.7120    8.9750    1.1150 N.3    53  PRO53      -0.2116
     84  CA        -9.6670    9.4320    2.5300 C.3    53  PRO53       0.1372
     85  C         -9.5710    8.2760    3.5740 C.2    53  PRO53       0.2244
     86  O         -8.9500    8.4350    4.6100 O.2    53  PRO53      -0.2868
     87  CB       -10.9320   10.2890    2.6710 C.3    53  PRO53       0.0268
     88  CG       -11.8680    9.8910    1.5110 C.3    53  PRO53       0.0207
     89  CD       -11.0130    9.0650    0.5040 C.3    53  PRO53       0.0892
@<TRIPOS>BOND
     1    40    39    1
     2    82    81    1
     3    38    39   ar
     4    38    36   ar
     5    39    37   ar
     6    81    78    1
     7    36    34   ar
     8    80    79    2
     9    32    31    2
    10    37    35   ar
    11    78    79    1
    12    78    77    1
    13    34    35   ar
    14    34    33    1
    15    31    30    1
    16    45    42    1
    17    45    46    1
    18    44    43    2
    19    42    43    1
    20    42    41    1
    21    77    72   am
    22    33    30    1
    23    30    29    1
    24    43    49   am
    25    73    72    2
    26    72    71    1
    27    48    46   ar
    28    46    47   ar
    29    25    24    2
    30    29    24   am
    31    49    50    1
    32    24    23    1
    33    71    74    1
    34    71    70    1
    35    76    74    1
    36    61    60    2
    37    50    51    1
    38    50    53    1
    39    74    75    1
    40    27    26    1
    41    52    51    2
    42    51    58   am
    43    70    60   am
    44    28    26    1
    45    60    59    1
    46    23    26    1
    47    23    22    1
    48    54    53    1
    49    54    55    1
    50    58    59    1
    51    20    19    1
    52    22    17   am
    53    21    19    1
    54    59    62    1
    55    57    56    1
    56    56    55    1
    57    89    83    1
    58    89    88    1
    59    19    16    1
    60    62    63    1
    61    17    16    1
    62    17    18    2
    63    83    84    1
    64    88    87    1
    65    16    15    1
    66    63    64   ar
    67    63    65   ar
    68    84    87    1
    69    84    85    1
    70    64    66   ar
    71    15    10   am
    72    65    67   ar
    73    85    86    2
    74    11    10    2
    75    10     9    1
    76    66    68   ar
    77    67    68   ar
    78    68    69    1
    79     9     8    1
    80     9    12    1
    81    13    12    1
    82    14    12    1
    83     1     2    1
    84     3     2    1
    85     3     4    2
    86     2     5    1
    87     5     7    1
    88     5     6    1
