@<TRIPOS>MOLECULE
tmp/1ad4A00.pdb
 170 154 0 0 0
SMALL
GASTEIGER

@<TRIPOS>ATOM
      1  N         30.7920   -1.2880   41.5150 N.3     8  ILE8       -0.1245
      2  CA        31.1180   -0.3110   42.5610 C.3     8  ILE8        0.1561
      3  C         30.8650   -0.8220   43.9800 C.2     8  ILE8        0.2260
      4  O         29.7430   -1.2140   44.3130 O.2     8  ILE8       -0.2867
      5  CB        30.2900    1.0090   42.4050 C.3     8  ILE8        0.0252
      6  CG1       30.5650    1.6590   41.0480 C.3     8  ILE8        0.0019
      7  CG2       30.6650    2.0130   43.5090 C.3     8  ILE8        0.0019
      8  CD1       29.5940    2.7800   40.6710 C.3     8  ILE8        0.0001
      9  N         31.1700    0.6840   47.6130 N.3    10  ASN10      -0.1240
     10  CA        31.3560    1.8710   48.4620 C.3    10  ASN10       0.1653
     11  C         31.5460    1.4860   49.9120 C.2    10  ASN10       0.2266
     12  O         30.7130    0.7760   50.4710 O.2    10  ASN10      -0.2867
     13  CB        30.1420    2.8070   48.3890 C.3    10  ASN10       0.1155
     14  CG        30.1280    3.6580   47.1380 C.2    10  ASN10       0.2627
     15  OD1       31.1180    4.3070   46.8020 O.2    10  ASN10      -0.2716
     16  ND2       29.0000    3.6610   46.4340 N.am   10  ASN10      -0.0877
     17  N         36.3900    7.4390   49.4190 N.3    36  VAL36      -0.1231
     18  CA        36.5990    8.8850   49.3280 C.3    36  VAL36       0.1692
     19  C         35.8590    9.4720   48.1380 C.2    36  VAL36       0.2592
     20  O         35.3170    8.7420   47.3100 O.2    36  VAL36      -0.2718
     21  CB        38.0990    9.2060   49.2060 C.3    36  VAL36       0.0266
     22  CG1       38.7870    8.8840   50.5130 C.3    36  VAL36       0.0020
     23  CG2       38.7200    8.3720   48.0900 C.3    36  VAL36       0.0020
     24  N         35.8390   10.7970   48.0810 N.am   37  SER37      -0.1952
     25  CA        35.1850   11.5290   47.0160 C.3    37  SER37       0.1924
     26  C         36.0200   12.7730   46.7370 C.2    37  SER37       0.2314
     27  O         36.6710   13.2980   47.6430 O.2    37  SER37      -0.2863
     28  CB        33.7860   11.9320   47.4890 C.3    37  SER37       0.2116
     29  OG        33.0850   12.6890   46.5200 O.3    37  SER37      -0.2180
     30  N         34.5350   15.4170   45.2620 N.3    39  ARG39      -0.1245
     31  CA        33.5140   16.4350   45.0430 C.3    39  ARG39       0.1563
     32  C         33.6580   17.5370   46.0830 C.2    39  ARG39       0.2260
     33  O         33.5720   17.2720   47.2900 O.2    39  ARG39      -0.2867
     34  CB        32.0990   15.8410   45.1590 C.3    39  ARG39       0.0307
     35  CG        31.7320   14.8940   44.0380 C.3    39  ARG39       0.0489
     36  CD        30.3540   14.2500   44.1810 C.3    39  ARG39       0.2205
     37  NE        30.1180   13.3690   43.0370 N.pl3  39  ARG39      -0.0865
     38  CZ        29.5040   13.7420   41.9180 C.cat  39  ARG39       0.5346
     39  NH1       29.0430   14.9770   41.7980 N.pl3  39  ARG39       0.1354
     40  NH2       29.3690   12.8890   40.9090 N.pl3  39  ARG39       0.1354
     41  N         32.0310   17.8620   49.7320 N.3    42  HIS42      -0.1241
     42  CA        31.9200   16.5280   50.3260 C.3    42  HIS42       0.1621
     43  C         32.8940   16.3710   51.5080 C.2    42  HIS42       0.2264
     44  O         33.8600   17.1320   51.6280 O.2    42  HIS42      -0.2867
     45  CB        32.1940   15.4550   49.2600 C.3    42  HIS42       0.0745
     46  CG        31.4600   14.1550   49.4960 C.ar   42  HIS42       0.0817
     47  ND1       30.1160   14.0220   49.2310 N.ar   42  HIS42      -0.2268
     48  CD2       31.8880   12.9780   49.9610 C.ar   42  HIS42       0.1154
     49  CE1       29.7400   12.7860   49.5310 C.ar   42  HIS42       0.1986
     50  NE2       30.7970   12.1200   49.9790 N.ar   42  HIS42      -0.2212
     51  N         39.6830    2.9070   44.4760 N.3    71  ASP71      -0.1239
     52  CA        39.3790    4.3090   44.1520 C.3    71  ASP71       0.1674
     53  C         40.0410    5.2250   45.2010 C.2    71  ASP71       0.2266
     54  O         39.4540    5.5140   46.2510 O.2    71  ASP71      -0.2867
     55  CB        37.8440    4.4830   44.1710 C.3    71  ASP71       0.1410
     56  CG        37.3320    5.6330   43.2890 C.2    71  ASP71       0.3668
     57  OD1       38.0800    6.5720   42.9370 O.co2  71  ASP71      -0.2456
     58  OD2       36.1270    5.5840   42.9490 O.co2  71  ASP71      -0.2456
     59  N         42.3200    3.2600   40.7530 N.3    90  ASN90      -0.1240
     60  CA        41.3960    4.1890   40.0750 C.3    90  ASN90       0.1653
     61  C         41.5930    5.5860   40.6670 C.2    90  ASN90       0.2266
     62  O         41.1520    5.8520   41.7880 O.2    90  ASN90      -0.2867
     63  CB        39.9560    3.7280   40.2920 C.3    90  ASN90       0.1155
     64  CG        38.9420    4.6530   39.6540 C.2    90  ASN90       0.2627
     65  OD1       39.2680    5.4370   38.7640 O.2    90  ASN90      -0.2716
     66  ND2       37.7060    4.5620   40.1060 N.am   90  ASN90      -0.0877
     67  N         40.8770    9.5050   40.8140 N.3    92  GLN92      -0.1245
     68  CA        40.0110   10.6430   40.5250 C.3    92  GLN92       0.1566
     69  C         40.7810   11.9150   40.1100 C.2    92  GLN92       0.2260
     70  O         40.1900   12.8450   39.5630 O.2    92  GLN92      -0.2867
     71  CB        39.0930   10.9110   41.7330 C.3    92  GLN92       0.0367
     72  CG        38.0740    9.7780   42.0040 C.3    92  GLN92       0.0905
     73  CD        37.1430   10.0570   43.1810 C.2    92  GLN92       0.2608
     74  OE1       36.6760   11.1800   43.3580 O.2    92  GLN92      -0.2717
     75  NE2       36.8680    9.0370   43.9870 N.am   92  GLN92      -0.0878
     76  N         43.6450    4.0710   36.3350 N.3   113  VAL113     -0.1245
     77  CA        42.5710    4.7720   35.6420 C.3   113  VAL113      0.1561
     78  C         42.8390    6.2530   35.8740 C.2   113  VAL113      0.2260
     79  O         42.9260    6.7020   37.0190 O.2   113  VAL113     -0.2867
     80  CB        41.1780    4.4550   36.2260 C.3   113  VAL113      0.0252
     81  CG1       40.1030    5.1800   35.4210 C.3   113  VAL113      0.0019
     82  CG2       40.9310    2.9580   36.2360 C.3   113  VAL113      0.0019
     83  N         41.2470    9.6890   35.6020 N.3   115  MET115     -0.1245
     84  CA        39.9520   10.3510   35.4140 C.3   115  MET115      0.1570
     85  C         40.0920   11.8590   35.2420 C.2   115  MET115      0.2261
     86  O         40.8780   12.4880   35.9530 O.2   115  MET115     -0.2867
     87  CB        39.0370   10.0900   36.6190 C.3   115  MET115      0.0387
     88  CG        37.6010   10.5670   36.4160 C.3   115  MET115      0.0595
     89  SD        36.6100   10.6070   37.9160 S.3   115  MET115     -0.1393
     90  CE        37.2590   12.0320   38.6820 C.3   115  MET115      0.0692
     91  N         39.3140    8.0710   31.6280 N.3   154  ASP154     -0.1239
     92  CA        37.9310    8.2120   32.0960 C.3   154  ASP154      0.1674
     93  C         37.5390    9.6910   31.9690 C.2   154  ASP154      0.2266
     94  O         38.1810   10.5700   32.5540 O.2   154  ASP154     -0.2867
     95  CB        37.8350    7.7460   33.5670 C.3   154  ASP154      0.1410
     96  CG        36.4080    7.8220   34.1540 C.2   154  ASP154      0.3668
     97  OD1       35.5510    8.5890   33.6710 O.co2 154  ASP154     -0.2456
     98  OD2       36.1350    7.0990   35.1330 O.co2 154  ASP154     -0.2456
     99  N         35.4760   11.3880   33.4040 N.3   156  GLY156     -0.1210
    100  CA        35.0300   12.0050   34.6430 C.3   156  GLY156      0.1956
    101  C         33.6450   12.6320   34.6680 C.2   156  GLY156      0.2611
    102  O         33.4550   13.6780   35.2990 O.2   156  GLY156     -0.2717
    103  N         32.6780   12.0200   33.9890 N.am  157  ILE157     -0.1979
    104  CA        31.3150   12.5430   33.9890 C.3   157  ILE157      0.1595
    105  C         30.9090   12.7520   35.4390 C.2   157  ILE157      0.2287
    106  O         30.9820   11.8290   36.2620 O.2   157  ILE157     -0.2864
    107  CB        30.3240   11.5570   33.3220 C.3   157  ILE157      0.0276
    108  CG1       30.6560   11.4260   31.8360 C.3   157  ILE157      0.0022
    109  CG2       28.8720   12.0200   33.5190 C.3   157  ILE157      0.0022
    110  CD1       30.5220   12.7170   31.0750 C.3   157  ILE157      0.0001
    111  N         32.2840   15.3710   37.3040 N.3   159  PHE159     -0.1241
    112  CA        33.3560   16.0970   38.0070 C.3   159  PHE159      0.1605
    113  C         33.9210   17.3210   37.2760 C.2   159  PHE159      0.2264
    114  O         34.4050   17.2210   36.1380 O.2   159  PHE159     -0.2867
    115  CB        34.5290   15.1530   38.3680 C.3   159  PHE159      0.0534
    116  CG        34.1920   14.1320   39.4210 C.ar  159  PHE159     -0.0203
    117  CD1       33.6360   12.9070   39.0620 C.ar  159  PHE159     -0.0042
    118  CD2       34.3600   14.4200   40.7720 C.ar  159  PHE159     -0.0042
    119  CE1       33.2480   11.9860   40.0270 C.ar  159  PHE159     -0.0003
    120  CE2       33.9740   13.5040   41.7450 C.ar  159  PHE159     -0.0003
    121  CZ        33.4270   12.2800   41.3690 C.ar  159  PHE159     -0.0000
    122  N         37.3520    3.8150   30.1030 N.3   184  LEU184     -0.1245
    123  CA        36.3530    3.4710   31.1200 C.3   184  LEU184      0.1561
    124  C         35.3060    4.5940   31.2180 C.2   184  LEU184      0.2260
    125  O         35.6560    5.7570   31.4150 O.2   184  LEU184     -0.2867
    126  CB        37.0290    3.2930   32.4920 C.3   184  LEU184      0.0270
    127  CG        36.1490    3.1700   33.7460 C.3   184  LEU184      0.0019
    128  CD1       35.6450    1.7640   33.8720 C.3   184  LEU184      0.0001
    129  CD2       36.9340    3.4980   34.9870 C.3   184  LEU184      0.0001
    130  N         32.1510    5.9980   33.3300 N.3   186  ALA186     -0.1245
    131  CA        31.5890    5.8930   34.6700 C.3   186  ALA186      0.1562
    132  C         30.5250    6.9810   34.8260 C.2   186  ALA186      0.2260
    133  O         30.8150    8.1000   35.2670 O.2   186  ALA186     -0.2867
    134  CB        32.7010    6.0630   35.7180 C.3   186  ALA186      0.0290
    135  N         27.1910    5.9160   35.9980 N.3   188  SER188     -0.1217
    136  CA        26.1500    5.3160   36.8140 C.3   188  SER188      0.1889
    137  C         25.3990    6.1370   37.8790 C.2   188  SER188      0.2288
    138  O         25.9870    6.5900   38.8620 O.2   188  SER188     -0.2866
    139  CB        26.6990    4.0290   37.4160 C.3   188  SER188      0.2089
    140  OG        25.6930    3.3280   38.1170 O.3   188  SER188     -0.2183
    141  N         24.4860    9.0250   38.0930 N.3   190  LYS190     -0.1245
    142  CA        24.9180   10.3980   38.2710 C.3   190  LYS190      0.1561
    143  C         23.8900   11.3910   37.7250 C.2   190  LYS190      0.2260
    144  O         22.8260   11.0080   37.2290 O.2   190  LYS190     -0.2867
    145  CB        26.2890   10.6010   37.6180 C.3   190  LYS190      0.0271
    146  CG        27.4490    9.9840   38.3970 C.3   190  LYS190      0.0035
    147  CD        28.7660   10.1480   37.6470 C.3   190  LYS190      0.0206
    148  CE        29.9030    9.4650   38.3890 C.3   190  LYS190      0.1093
    149  NZ        31.2210    9.5790   37.7150 N.3   190  LYS190     -0.1314
    150  N         32.0250    1.3660   34.6550 N.3   226  ARG226     -0.1245
    151  CA        31.9800    1.3400   36.1280 C.3   226  ARG226      0.1563
    152  C         30.5080    1.5670   36.5030 C.2   226  ARG226      0.2260
    153  O         29.9630    2.6580   36.2910 O.2   226  ARG226     -0.2867
    154  CB        32.8600    2.4480   36.7140 C.3   226  ARG226      0.0307
    155  CG        32.8960    2.4690   38.2250 C.3   226  ARG226      0.0489
    156  CD        33.8050    3.5620   38.6950 C.3   226  ARG226      0.2205
    157  NE        33.8630    3.6430   40.1470 N.pl3 226  ARG226     -0.0865
    158  CZ        33.1080    4.4490   40.8820 C.cat 226  ARG226      0.5346
    159  NH1       32.2070    5.2310   40.3020 N.pl3 226  ARG226      0.1354
    160  NH2       33.2570    4.4860   42.1970 N.pl3 226  ARG226      0.1354
    161  N         26.8100    0.4130   39.1720 N.3   228  HIS228     -0.1241
    162  CA        26.2820   -0.0270   40.4560 C.3   228  HIS228      0.1621
    163  C         25.5270   -1.3380   40.2290 C.2   228  HIS228      0.2264
    164  O         25.6990   -2.2980   40.9770 O.2   228  HIS228     -0.2867
    165  CB        25.3270    1.0120   41.0550 C.3   228  HIS228      0.0745
    166  CG        25.9990    2.2160   41.6250 C.ar  228  HIS228      0.0817
    167  ND1       26.1160    3.4130   40.9330 N.ar  228  HIS228     -0.2268
    168  CD2       26.5620    2.4410   42.8430 C.ar  228  HIS228      0.1154
    169  CE1       26.7140    4.3030   41.6980 C.ar  228  HIS228      0.1986
    170  NE2       26.9960    3.7520   42.8520 N.ar  228  HIS228     -0.2212
@<TRIPOS>BOND
     1   122   123    1
     2   110   108    1
     3   123   124    1
     4   123   126    1
     5   124   125    2
     6    91    92    1
     7   108   107    1
     8    93    92    1
     9    93    94    2
    10    92    95    1
    11   126   127    1
    12   107   109    1
    13   107   104    1
    14   130   131    1
    15    99   100    1
    16    95    96    1
    17    97    96   ar
    18   127   128    1
    19   127   129    1
    20   104   103    1
    21   104   105    1
    22   103   101   am
    23    96    98   ar
    24   100   101    1
    25   150   151    1
    26   101   102    2
    27   131   132    1
    28   131   134    1
    29   132   133    2
    30    85    84    1
    31    85    86    2
    32    84    83    1
    33    84    87    1
    34    81    80    1
    35   105   106    2
    36    77    78    1
    37    77    80    1
    38    77    76    1
    39    78    79    2
    40   135   136    1
    41   151   152    1
    42   151   154    1
    43   114   113    2
    44    80    82    1
    45   153   152    2
    46    88    87    1
    47    88    89    1
    48   154   155    1
    49   136   139    1
    50   136   137    1
    51   144   143    2
    52   113   112    1
    53   111   112    1
    54   139   140    1
    55   145   142    1
    56   145   146    1
    57   147   148    1
    58   147   146    1
    59   149   148    1
    60   143   142    1
    61   137   138    2
    62    89    90    1
    63   112   115    1
    64   141   142    1
    65   155   156    1
    66   115   116    1
    67   156   157    1
    68    65    64    2
    69   117   116   ar
    70   117   119   ar
    71   161   162    1
    72   116   118   ar
    73    70    69    2
    74    64    66   am
    75    64    63    1
    76   119   121   ar
    77    60    63    1
    78    60    61    1
    79    60    59    1
    80    69    68    1
    81   157   158    2
    82   163   162    1
    83   163   164    2
    84   159   158    1
    85   162   165    1
    86    68    67    1
    87    68    71    1
    88    61    62    2
    89     8     6    1
    90   118   120   ar
    91   158   160    1
    92    40    38    1
    93   167   166   ar
    94   167   169   ar
    95     6     5    1
    96   165   166    1
    97   121   120   ar
    98     1     2    1
    99   166   168   ar
   100   169   170   ar
   101    71    72    1
   102    39    38    1
   103    38    37    2
   104    72    73    1
   105     5     2    1
   106     5     7    1
   107     2     3    1
   108   168   170   ar
   109    57    56   ar
   110    58    56   ar
   111    37    36    1
   112    73    74    2
   113    73    75   am
   114    56    55    1
   115     3     4    2
   116    35    36    1
   117    35    34    1
   118    52    55    1
   119    52    51    1
   120    52    53    1
   121    31    34    1
   122    31    30    1
   123    31    32    1
   124    53    54    2
   125    32    33    2
   126    16    14   am
   127    29    28    1
   128    26    25    1
   129    26    27    2
   130    15    14    2
   131    25    28    1
   132    25    24    1
   133    14    13    1
   134    20    19    2
   135     9    10    1
   136    24    19   am
   137    23    21    1
   138    19    18    1
   139    13    10    1
   140    10    11    1
   141    21    18    1
   142    21    22    1
   143    47    46   ar
   144    47    49   ar
   145    45    46    1
   146    45    42    1
   147    18    17    1
   148    46    48   ar
   149    49    50   ar
   150    41    42    1
   151    11    12    2
   152    48    50   ar
   153    42    43    1
   154    43    44    2
