@<TRIPOS>MOLECULE
tmp/1ad5B00.pdb
 174 162 0 0 0
SMALL
GASTEIGER

@<TRIPOS>ATOM
      1  N         44.2310   42.3730  171.4880 N.3   190  LEU190     -0.1231
      2  CA        44.5370   41.6350  170.2730 C.3   190  LEU190      0.1693
      3  C         45.7430   42.1530  169.5060 C.2   190  LEU190      0.2593
      4  O         46.3740   41.3720  168.7940 O.2   190  LEU190     -0.2718
      5  CB        43.3490   41.6600  169.3710 C.3   190  LEU190      0.0284
      6  CG        42.0800   41.0660  169.9180 C.3   190  LEU190      0.0019
      7  CD1       41.0350   41.4060  168.9050 C.3   190  LEU190      0.0001
      8  CD2       42.1540   39.5660  170.1610 C.3   190  LEU190      0.0001
      9  N         46.1040   43.4320  169.5510 N.am  191  GLY191     -0.1942
     10  CA        47.3030   43.8980  168.8660 C.3   191  GLY191      0.2014
     11  C         47.6210   45.3240  169.2800 C.2   191  GLY191      0.2639
     12  O         46.6920   46.0450  169.6650 O.2   191  GLY191     -0.2714
     13  N         48.8980   45.7510  169.2250 N.am  192  ALA192     -0.1963
     14  CA        49.2970   47.1190  169.5780 C.3   192  ALA192      0.1728
     15  C         50.0700   47.7760  168.4220 C.2   192  ALA192      0.2616
     16  O         51.2520   48.1380  168.5260 O.2   192  ALA192     -0.2715
     17  CB        50.1720   47.0980  170.8300 C.3   192  ALA192      0.0334
     18  N         49.3490   47.9680  167.2870 N.am  193  GLY193     -0.1955
     19  CA        49.8870   48.4710  166.0050 C.3   193  GLY193      0.1869
     20  C         50.3200   49.9570  165.8400 C.2   193  GLY193      0.2309
     21  O         49.8370   50.6250  164.9080 O.2   193  GLY193     -0.2863
     22  N         47.4910   52.8810  167.7760 N.3   196  GLY196     -0.1210
     23  CA        46.3880   52.4670  168.5720 C.3   196  GLY196      0.1956
     24  C         46.5570   51.0020  168.8370 C.2   196  GLY196      0.2612
     25  O         47.5880   50.4290  168.4840 O.2   196  GLY196     -0.2717
     26  N         45.5630   50.3720  169.4450 N.am  197  GLU197     -0.1965
     27  CA        45.6070   48.9690  169.8260 C.3   197  GLU197      0.1733
     28  C         44.2560   48.4380  169.3970 C.2   197  GLU197      0.2616
     29  O         43.3600   49.2350  169.1270 O.2   197  GLU197     -0.2715
     30  CB        45.7130   48.7760  171.3340 C.3   197  GLU197      0.0429
     31  CG        46.7000   49.6760  172.0610 C.3   197  GLU197      0.1163
     32  CD        46.6340   49.5950  173.5710 C.2   197  GLU197      0.3649
     33  OE1       47.2710   48.7410  174.1690 O.co2 197  GLU197     -0.2457
     34  OE2       45.9570   50.4190  174.1560 O.co2 197  GLU197     -0.2457
     35  N         44.0330   47.1300  169.3140 N.am  198  VAL198     -0.1977
     36  CA        42.7170   46.5600  168.9940 C.3   198  VAL198      0.1596
     37  C         42.5300   45.5950  170.1280 C.2   198  VAL198      0.2287
     38  O         43.4020   44.7760  170.4260 O.2   198  VAL198     -0.2864
     39  CB        42.6600   45.7460  167.6590 C.3   198  VAL198      0.0276
     40  CG1       41.2830   45.1510  167.4840 C.3   198  VAL198      0.0022
     41  CG2       42.8650   46.6420  166.4510 C.3   198  VAL198      0.0022
     42  N         35.0570   44.1490  168.4560 N.3   210  ALA210     -0.1245
     43  CA        36.4720   44.4620  168.4790 C.3   210  ALA210      0.1562
     44  C         36.5610   45.9910  168.6540 C.2   210  ALA210      0.2260
     45  O         35.7040   46.7080  168.1130 O.2   210  ALA210     -0.2867
     46  CB        37.1450   44.0990  167.1650 C.3   210  ALA210      0.0290
     47  N         39.2350   49.3770  168.3490 N.3   212  LYS212     -0.1245
     48  CA        40.5470   49.9590  168.0760 C.3   212  LYS212      0.1561
     49  C         40.5360   51.1740  168.9690 C.2   212  LYS212      0.2260
     50  O         39.5540   51.9350  168.9800 O.2   212  LYS212     -0.2867
     51  CB        40.7280   50.4140  166.5890 C.3   212  LYS212      0.0271
     52  CG        42.1390   50.4880  165.9400 C.3   212  LYS212      0.0035
     53  CD        41.9840   50.4790  164.3850 C.3   212  LYS212      0.0206
     54  CE        43.0750   49.8400  163.4410 C.3   212  LYS212      0.1093
     55  NZ        44.3610   50.5370  163.3440 N.3   212  LYS212     -0.1314
     56  N         34.0580   44.7430  156.8440 N.3   240  VAL240     -0.1245
     57  CA        33.7890   44.6600  158.2660 C.3   240  VAL240      0.1561
     58  C         32.6890   45.6460  158.6740 C.2   240  VAL240      0.2260
     59  O         32.7530   46.8200  158.2900 O.2   240  VAL240     -0.2867
     60  CB        35.1620   44.8890  158.9490 C.3   240  VAL240      0.0252
     61  CG1       35.1310   44.9100  160.4500 C.3   240  VAL240      0.0019
     62  CG2       36.0240   43.6850  158.5550 C.3   240  VAL240      0.0019
     63  N         33.9410   47.6710  165.8550 N.3   255  THR255     -0.1203
     64  CA        33.6430   46.9370  164.6400 C.3   255  THR255      0.1994
     65  C         33.2390   45.5120  165.0590 C.2   255  THR255      0.2621
     66  O         33.2430   45.1560  166.2550 O.2   255  THR255     -0.2717
     67  CB        34.8880   46.9040  163.6510 C.3   255  THR255      0.1784
     68  OG1       35.9990   46.2300  164.2440 O.3   255  THR255     -0.2211
     69  CG2       35.3020   48.3290  163.2810 C.3   255  THR255      0.0376
     70  N         32.7500   44.7090  164.1040 N.am  256  GLU256     -0.1919
     71  CA        32.3450   43.3680  164.4320 C.3   256  GLU256      0.1949
     72  C         33.5180   42.4870  164.8200 C.2   256  GLU256      0.2659
     73  O         34.6210   42.7380  164.3390 O.2   256  GLU256     -0.2711
     74  CB        31.5910   42.8100  163.2280 C.2   256  GLU256      0.0111
     75  CG        32.2470   42.7200  161.8360 C.2   256  GLU256      0.0838
     76  CD        31.5790   41.7770  160.8170 C.2   256  GLU256      0.3877
     77  OE1       31.2340   40.6290  161.1190 O.co2 256  GLU256     -0.2406
     78  OE2       31.3890   42.1710  159.6770 O.co2 256  GLU256     -0.2406
     79  N         33.3960   41.4620  165.6550 N.am  257  PHE257     -0.1957
     80  CA        34.5490   40.6070  165.9010 C.3   257  PHE257      0.1771
     81  C         34.7090   39.5360  164.8150 C.2   257  PHE257      0.2619
     82  O         33.7450   38.8690  164.4250 O.2   257  PHE257     -0.2715
     83  CB        34.3890   39.9530  167.2220 C.3   257  PHE257      0.0574
     84  CG        35.5890   39.1070  167.6370 C.ar  257  PHE257     -0.0200
     85  CD1       36.7960   39.7310  168.0100 C.ar  257  PHE257     -0.0042
     86  CD2       35.4870   37.6950  167.7210 C.ar  257  PHE257     -0.0042
     87  CE1       37.8650   38.9390  168.4540 C.ar  257  PHE257     -0.0003
     88  CE2       36.5790   36.9210  168.1750 C.ar  257  PHE257     -0.0003
     89  CZ        37.7660   37.5460  168.5410 C.ar  257  PHE257     -0.0000
     90  N         35.9390   39.3840  164.3030 N.am  258  MET258     -0.1977
     91  CA        36.3010   38.4180  163.2720 C.3   258  MET258      0.1605
     92  C         37.2160   37.3670  163.8910 C.2   258  MET258      0.2287
     93  O         38.4120   37.5790  164.1360 O.2   258  MET258     -0.2864
     94  CB        37.0360   39.0940  162.1570 C.3   258  MET258      0.0413
     95  CG        36.1620   40.0880  161.4570 C.3   258  MET258      0.0598
     96  SD        34.6890   39.3020  160.7800 S.3   258  MET258     -0.1393
     97  CE        35.4810   38.7680  159.3030 C.3   258  MET258      0.0692
     98  N         40.9510   36.1150  162.9500 N.3   261  GLY261     -0.1210
     99  CA        41.9900   37.1280  162.9510 C.3   261  GLY261      0.1956
    100  C         42.2250   37.7070  161.5890 C.2   261  GLY261      0.2612
    101  O         41.2550   37.8350  160.8300 O.2   261  GLY261     -0.2717
    102  N         43.4680   38.0710  161.2430 N.am  262  SER262     -0.1952
    103  CA        43.6710   38.6890  159.9440 C.3   262  SER262      0.1924
    104  C         43.9500   37.5920  158.9380 C.2   262  SER262      0.2314
    105  O         44.1960   36.4410  159.3170 O.2   262  SER262     -0.2863
    106  CB        44.8280   39.6680  160.0070 C.3   262  SER262      0.2116
    107  OG        46.0940   39.0410  160.1680 O.3   262  SER262     -0.2180
    108  N         46.5730   37.5670  157.0000 N.3   264  LEU264     -0.1231
    109  CA        47.9760   37.2560  157.1400 C.3   264  LEU264      0.1693
    110  C         48.2080   36.2170  158.2430 C.2   264  LEU264      0.2592
    111  O         48.7950   35.1640  158.0350 O.2   264  LEU264     -0.2718
    112  CB        48.6940   38.5380  157.4470 C.3   264  LEU264      0.0284
    113  CG        50.1790   38.4880  157.2720 C.3   264  LEU264      0.0019
    114  CD1       50.5770   38.7430  155.8170 C.3   264  LEU264      0.0001
    115  CD2       50.7820   39.5550  158.1340 C.3   264  LEU264      0.0001
    116  N         47.6710   36.4660  159.4290 N.am  265  ASP265     -0.1974
    117  CA        47.8050   35.5540  160.5440 C.3   265  ASP265      0.1709
    118  C         47.2080   34.2130  160.1680 C.2   265  ASP265      0.2293
    119  O         47.7650   33.1630  160.4800 O.2   265  ASP265     -0.2864
    120  CB        47.0350   35.9800  161.7890 C.3   265  ASP265      0.1436
    121  CG        47.3900   37.2740  162.5150 C.2   265  ASP265      0.3671
    122  OD1       48.4920   37.8110  162.3100 O.co2 265  ASP265     -0.2456
    123  OD2       46.5330   37.7180  163.3020 O.co2 265  ASP265     -0.2456
    124  N         46.0460   45.3090  152.1100 N.3   305  ARG305     -0.1245
    125  CA        47.0470   44.2350  152.2490 C.3   305  ARG305      0.1563
    126  C         46.4480   43.1870  153.1340 C.2   305  ARG305      0.2260
    127  O         45.5240   43.5170  153.8590 O.2   305  ARG305     -0.2867
    128  CB        48.3460   44.6120  152.9310 C.3   305  ARG305      0.0307
    129  CG        48.2080   45.3860  154.2000 C.3   305  ARG305      0.0489
    130  CD        49.1730   46.5610  154.1800 C.3   305  ARG305      0.2205
    131  NE        48.8860   47.3620  155.3420 N.pl3 305  ARG305     -0.0865
    132  CZ        49.4200   47.1090  156.5340 C.cat 305  ARG305      0.5346
    133  NH1       50.2850   46.0970  156.7520 N.pl3 305  ARG305      0.1354
    134  NH2       48.9970   47.8530  157.5410 N.pl3 305  ARG305      0.1354
    135  N         47.0880   42.0140  155.8340 N.3   307  ALA307     -0.1231
    136  CA        47.0880   42.4820  157.1970 C.3   307  ALA307      0.1694
    137  C         45.7770   43.2270  157.5400 C.2   307  ALA307      0.2592
    138  O         45.3320   43.3380  158.7070 O.2   307  ALA307     -0.2718
    139  CB        48.2780   43.3860  157.3170 C.3   307  ALA307      0.0304
    140  N         45.1430   43.7630  156.4970 N.am  308  ASN308     -0.1974
    141  CA        43.9060   44.4750  156.6100 C.3   308  ASN308      0.1688
    142  C         42.6470   43.7890  156.1330 C.2   308  ASN308      0.2292
    143  O         41.6130   44.4380  155.9430 O.2   308  ASN308     -0.2864
    144  CB        44.0710   45.7630  155.8950 C.3   308  ASN308      0.1181
    145  CG        44.6260   46.8470  156.7990 C.2   308  ASN308      0.2629
    146  OD1       44.8700   47.9720  156.3860 O.2   308  ASN308     -0.2716
    147  ND2       44.8570   46.6260  158.0710 N.am  308  ASN308     -0.0877
    148  N         40.2480   40.4270  157.2270 N.3   310  LEU310     -0.1245
    149  CA        40.0790   39.5780  158.4090 C.3   310  LEU310      0.1561
    150  C         39.2840   38.3180  158.0640 C.2   310  LEU310      0.2260
    151  O         38.6020   38.3290  157.0230 O.2   310  LEU310     -0.2867
    152  CB        39.3350   40.3320  159.4870 C.3   310  LEU310      0.0270
    153  CG        39.9800   41.5670  159.9650 C.3   310  LEU310      0.0019
    154  CD1       38.8920   42.2990  160.6140 C.3   310  LEU310      0.0001
    155  CD2       41.1220   41.3460  160.9060 C.3   310  LEU310      0.0001
    156  N         39.2540   48.4750  157.9310 N.3   321  ASP321     -0.1239
    157  CA        39.8360   49.8080  157.9060 C.3   321  ASP321      0.1674
    158  C         39.8540   50.4930  156.5560 C.2   321  ASP321      0.2266
    159  O         40.7610   50.2940  155.7580 O.2   321  ASP321     -0.2867
    160  CB        41.2500   49.6850  158.4940 C.3   321  ASP321      0.1410
    161  CG        41.3290   49.0990  159.9070 C.2   321  ASP321      0.3668
    162  OD1       40.3430   49.0770  160.6800 O.co2 321  ASP321     -0.2456
    163  OD2       42.4210   48.6740  160.2310 O.co2 321  ASP321     -0.2456
    164  N         44.4900   59.8970  159.0740 N.3   326  ARG326     -0.1245
    165  CA        45.4590   59.8210  160.1680 C.3   326  ARG326      0.1563
    166  C         46.4370   60.9940  159.9630 C.2   326  ARG326      0.2260
    167  O         46.2600   61.7370  158.9900 O.2   326  ARG326     -0.2867
    168  CB        46.2150   58.4500  160.1250 C.3   326  ARG326      0.0307
    169  CG        45.3070   57.2650  160.2530 C.3   326  ARG326      0.0489
    170  CD        46.0640   55.9180  160.2470 C.3   326  ARG326      0.2205
    171  NE        46.9520   55.7970  159.1330 N.pl3 326  ARG326     -0.0865
    172  CZ        47.7420   54.7530  158.8970 C.cat 326  ARG326      0.5346
    173  NH1       47.7630   53.7180  159.7190 N.pl3 326  ARG326      0.1354
    174  NH2       48.4180   54.7330  157.7330 N.pl3 326  ARG326      0.1354
@<TRIPOS>BOND
     1   124   125    1
     2   125   128    1
     3   125   126    1
     4   128   129    1
     5   126   127    2
     6   130   129    1
     7   130   131    1
     8   131   132    2
     9   159   158    2
    10   114   113    1
    11   135   136    1
    12   144   141    1
    13   144   145    1
    14   143   142    2
    15   142   141    1
    16   146   145    2
    17   140   141    1
    18   140   137   am
    19   132   133    1
    20   132   134    1
    21   158   157    1
    22   145   147   am
    23    56    57    1
    24   108   109    1
    25   151   150    2
    26   109   112    1
    27   109   110    1
    28   136   139    1
    29   136   137    1
    30   148   149    1
    31   113   112    1
    32   113   115    1
    33   137   138    2
    34   174   172    1
    35   157   156    1
    36   157   160    1
    37   111   110    2
    38   150   149    1
    39   110   116   am
    40    57    58    1
    41    57    60    1
    42    59    58    2
    43   149   152    1
    44   160   161    1
    45    62    60    1
    46   172   171    2
    47   172   173    1
    48   104   105    2
    49   104   103    1
    50    60    61    1
    51   167   166    2
    52   164   165    1
    53   171   170    1
    54    97    96    1
    55   116   117    1
    56   152   153    1
    57    78    76   ar
    58   161   163   ar
    59   161   162   ar
    60   103   106    1
    61   103   102    1
    62   166   165    1
    63   153   154    1
    64   153   155    1
    65   106   107    1
    66   168   165    1
    67   168   169    1
    68   118   119    2
    69   118   117    1
    70   170   169    1
    71   117   120    1
    72    96    95    1
    73    76    77   ar
    74    76    75    1
    75   101   100    2
    76   102   100   am
    77    95    94    1
    78   100    99    1
    79   120   121    1
    80    75    74    2
    81    94    91    1
    82   122   121   ar
    83   121   123   ar
    84    98    99    1
    85    74    71    1
    86    91    92    1
    87    91    90    1
    88    69    67    1
    89    55    54    1
    90    54    53    1
    91    67    68    1
    92    67    64    1
    93    92    93    2
    94    70    71    1
    95    70    65   am
    96    90    81   am
    97    73    72    2
    98    53    52    1
    99    82    81    2
   100    71    72    1
   101    64    65    1
   102    64    63    1
   103    81    80    1
   104    72    79   am
   105    21    20    2
   106    65    66    2
   107    79    80    1
   108    20    19    1
   109    80    83    1
   110    52    51    1
   111    19    18    1
   112    41    39    1
   113    51    48    1
   114    46    43    1
   115    83    84    1
   116    18    15   am
   117    40    39    1
   118    84    86   ar
   119    84    85   ar
   120    39    36    1
   121    86    88   ar
   122    22    23    1
   123    85    87   ar
   124    48    47    1
   125    48    49    1
   126    45    44    2
   127    88    89   ar
   128    15    16    2
   129    15    14    1
   130    87    89   ar
   131    42    43    1
   132    43    44    1
   133    25    24    2
   134    23    24    1
   135     4     3    2
   136    24    26   am
   137    10    11    1
   138    10     9    1
   139     7     6    1
   140    49    50    2
   141    36    35    1
   142    36    37    1
   143    29    28    2
   144    13    11   am
   145    13    14    1
   146    11    12    2
   147    35    28   am
   148     5     6    1
   149     5     2    1
   150    28    27    1
   151    26    27    1
   152     3     9   am
   153     3     2    1
   154    14    17    1
   155    27    30    1
   156     6     8    1
   157    37    38    2
   158     2     1    1
   159    30    31    1
   160    31    32    1
   161    32    34   ar
   162    32    33   ar
