@<TRIPOS>MOLECULE
tmp/1ad8B01.pdb
 221 220 0 0 0
SMALL
GASTEIGER

@<TRIPOS>ATOM
      1  N         14.2070   -2.2910    9.3470 N.3    27  LEU27      -0.1231
      2  CA        15.2830   -2.6810   10.2490 C.3    27  LEU27       0.1693
      3  C         14.9680   -2.3580   11.7220 C.2    27  LEU27       0.2592
      4  O         15.0010   -3.2440   12.5820 O.2    27  LEU27      -0.2718
      5  CB        16.5620   -1.9670    9.8210 C.3    27  LEU27       0.0284
      6  CG        17.6430   -2.7230    9.0430 C.3    27  LEU27       0.0019
      7  CD1       17.0680   -3.8390    8.1920 C.3    27  LEU27       0.0001
      8  CD2       18.4230   -1.7390    8.2020 C.3    27  LEU27       0.0001
      9  N         14.5360   -1.1200   11.9690 N.am   28  CYS28      -0.1970
     10  CA        14.2720   -0.6400   13.3220 C.3    28  CYS28       0.1712
     11  C         13.4730    0.6560   13.3490 C.2    28  CYS28       0.2296
     12  O         13.2120    1.2780   12.3120 O.2    28  CYS28      -0.2864
     13  CB        15.6140   -0.3090   13.9840 C.3    28  CYS28       0.0983
     14  SG        16.5110   -1.6390   14.8480 S.3    28  CYS28      -0.0798
     15  N         22.3230   -1.2450   18.6560 N.3    43  HIS43      -0.1241
     16  CA        22.1870   -2.6080   18.1640 C.3    43  HIS43       0.1621
     17  C         21.4330   -2.7330   16.8400 C.2    43  HIS43       0.2264
     18  O         21.3950   -3.8090   16.2490 O.2    43  HIS43      -0.2867
     19  CB        21.6110   -3.5470   19.2380 C.3    43  HIS43       0.0745
     20  CG        20.1200   -3.5360   19.3480 C.ar   43  HIS43       0.0817
     21  ND1       19.4580   -2.9110   20.3810 N.ar   43  HIS43      -0.2268
     22  CD2       19.1640   -4.1400   18.6020 C.ar   43  HIS43       0.1154
     23  CE1       18.1610   -3.1290   20.2700 C.ar   43  HIS43       0.1986
     24  NE2       17.9580   -3.8730   19.1990 N.ar   43  HIS43      -0.2212
     25  N         25.6120   -5.4300   15.7030 N.3    47  TYR47      -0.1241
     26  CA        25.3180   -6.5540   16.5810 C.3    47  TYR47       0.1605
     27  C         25.9470   -7.8290   16.0090 C.2    47  TYR47       0.2264
     28  O         25.2680   -8.6450   15.3750 O.2    47  TYR47      -0.2867
     29  CB        23.8170   -6.7520   16.7370 C.3    47  TYR47       0.0534
     30  CG        23.4940   -7.6220   17.9050 C.ar   47  TYR47      -0.0201
     31  CD1       23.9360   -7.2710   19.1810 C.ar   47  TYR47      -0.0009
     32  CD2       22.8080   -8.8210   17.7460 C.ar   47  TYR47      -0.0009
     33  CE1       23.7150   -8.0940   20.2820 C.ar   47  TYR47       0.0417
     34  CE2       22.5740   -9.6630   18.8440 C.ar   47  TYR47       0.0417
     35  CZ        23.0430   -9.2890   20.1160 C.ar   47  TYR47       0.1957
     36  OH        22.9040  -10.1210   21.2120 O.3    47  TYR47      -0.2866
     37  N         24.6150  -11.5570   15.4700 N.3    50  TRP50      -0.1241
     38  CA        23.6880  -11.7880   14.3550 C.3    50  TRP50       0.1605
     39  C         24.3150  -11.3440   13.0410 C.2    50  TRP50       0.2264
     40  O         23.6160  -11.1580   12.0460 O.2    50  TRP50      -0.2867
     41  CB        22.3840  -11.0040   14.5480 C.3    50  TRP50       0.0550
     42  CG        21.5210  -11.4250   15.7110 C.ar   50  TRP50       0.0003
     43  CD1       21.7010  -12.5050   16.5290 C.ar   50  TRP50       0.0946
     44  CD2       20.3380  -10.7610   16.1770 C.ar   50  TRP50       0.0152
     45  NE1       20.7060  -12.5530   17.4760 N.ar   50  TRP50      -0.2442
     46  CE2       19.8540  -11.4940   17.2840 C.ar   50  TRP50       0.0810
     47  CE3       19.6360   -9.6180   15.7650 C.ar   50  TRP50       0.0012
     48  CZ2       18.6980  -11.1220   17.9880 C.ar   50  TRP50       0.0191
     49  CZ3       18.4870   -9.2510   16.4630 C.ar   50  TRP50       0.0001
     50  CH2       18.0320  -10.0010   17.5630 C.ar   50  TRP50       0.0015
     51  N         25.3250   -8.5200   12.1680 N.3    52  LYS52      -0.1245
     52  CA        24.7930   -7.2310   11.7610 C.3    52  LYS52       0.1561
     53  C         25.8250   -6.1190   11.9670 C.2    52  LYS52       0.2260
     54  O         26.3690   -5.9400   13.0540 O.2    52  LYS52      -0.2867
     55  CB        23.5240   -6.9240   12.5490 C.3    52  LYS52       0.0271
     56  CG        22.9250   -5.5620   12.2520 C.3    52  LYS52       0.0035
     57  CD        21.6150   -5.3630   12.9990 C.3    52  LYS52       0.0206
     58  CE        20.6130   -6.4470   12.6640 C.3    52  LYS52       0.1093
     59  NZ        19.3750   -6.3060   13.4720 N.3    52  LYS52      -0.1314
     60  N         27.8600   -4.7430   23.2720 N.3    92  TRP92      -0.1241
     61  CA        27.0740   -5.7150   22.5280 C.3    92  TRP92       0.1605
     62  C         27.3570   -7.1250   22.9900 C.2    92  TRP92       0.2264
     63  O         26.5930   -8.0360   22.6910 O.2    92  TRP92      -0.2867
     64  CB        27.3660   -5.6200   21.0320 C.3    92  TRP92       0.0550
     65  CG        28.8220   -5.7010   20.6560 C.ar   92  TRP92       0.0003
     66  CD1       29.6650   -4.6520   20.4470 C.ar   92  TRP92       0.0946
     67  CD2       29.5870   -6.8920   20.3860 C.ar   92  TRP92       0.0152
     68  NE1       30.9070   -5.1050   20.0600 N.ar   92  TRP92      -0.2442
     69  CE2       30.8900   -6.4750   20.0170 C.ar   92  TRP92       0.0810
     70  CE3       29.2990   -8.2670   20.4210 C.ar   92  TRP92       0.0012
     71  CZ2       31.9040   -7.3840   19.6760 C.ar   92  TRP92       0.0191
     72  CZ3       30.3040   -9.1700   20.0800 C.ar   92  TRP92       0.0001
     73  CH2       31.5940   -8.7220   19.7170 C.ar   92  TRP92       0.0015
     74  N         27.5970   -8.3090   26.1890 N.3    94  GLU94      -0.1231
     75  CA        26.8720   -8.8190   27.3320 C.3    94  GLU94       0.1699
     76  C         25.4140   -8.4130   27.5570 C.2    94  GLU94       0.2592
     77  O         24.5200   -9.2520   27.4660 O.2    94  GLU94      -0.2718
     78  CB        27.6860   -8.5230   28.5920 C.3    94  GLU94       0.0402
     79  CG        27.1040   -9.0980   29.8660 C.3    94  GLU94       0.1161
     80  CD        27.6810   -8.4610   31.1220 C.2    94  GLU94       0.3649
     81  OE1       28.7650   -7.8290   31.0470 O.co2  94  GLU94      -0.2457
     82  OE2       27.0310   -8.5910   32.1830 O.co2  94  GLU94      -0.2457
     83  N         25.1750   -7.1450   27.8850 N.am   95  ASN95      -0.1960
     84  CA        23.8280   -6.6930   28.2120 C.3    95  ASN95       0.1819
     85  C         23.2870   -5.4930   27.4230 C.2    95  ASN95       0.2621
     86  O         22.3120   -4.8780   27.8430 O.2    95  ASN95      -0.2715
     87  CB        23.7870   -6.3670   29.7110 C.3    95  ASN95       0.1195
     88  CG        24.8550   -5.3620   30.1120 C.2    95  ASN95       0.2630
     89  OD1       25.6870   -4.9750   29.2900 O.2    95  ASN95      -0.2716
     90  ND2       24.8550   -4.9540   31.3670 N.am   95  ASN95      -0.0877
     91  N         23.9170   -5.1570   26.3000 N.am   96  LEU96      -0.1977
     92  CA        23.4840   -4.0080   25.4920 C.3    96  LEU96       0.1596
     93  C         23.5610   -2.6940   26.2620 C.2    96  LEU96       0.2287
     94  O         22.7250   -1.8070   26.0820 O.2    96  LEU96      -0.2864
     95  CB        22.0550   -4.1910   24.9610 C.3    96  LEU96       0.0297
     96  CG        21.8180   -5.0890   23.7500 C.3    96  LEU96       0.0022
     97  CD1       20.9790   -4.3110   22.8230 C.3    96  LEU96       0.0001
     98  CD2       23.0940   -5.4170   23.0210 C.3    96  LEU96       0.0001
     99  N         19.8860  -11.1990   33.2780 N.3   172  ILE172     -0.1245
    100  CA        20.7970  -10.2490   32.6340 C.3   172  ILE172      0.1561
    101  C         21.2060   -9.1440   33.6050 C.2   172  ILE172      0.2260
    102  O         20.4110   -8.7010   34.4310 O.2   172  ILE172     -0.2867
    103  CB        20.1780   -9.6760   31.3010 C.3   172  ILE172      0.0252
    104  CG1       20.0500  -10.8130   30.2870 C.3   172  ILE172      0.0019
    105  CG2       21.0530   -8.5700   30.6920 C.3   172  ILE172      0.0019
    106  CD1       19.4960  -10.3920   28.9710 C.3   172  ILE172      0.0001
    107  N          3.5050   -4.2280   25.4000 N.3   192  ASP192     -0.1225
    108  CA         4.9510   -4.2790   25.4280 C.3   192  ASP192      0.1805
    109  C          5.4280   -4.0060   24.0140 C.2   192  ASP192      0.2598
    110  O          4.6220   -3.8370   23.1030 O.2   192  ASP192     -0.2718
    111  CB         5.3800   -5.6880   25.8500 C.3   192  ASP192      0.1424
    112  CG         6.8550   -5.7870   26.2140 C.2   192  ASP192      0.3668
    113  OD1        7.4880   -4.7590   26.5350 O.co2 192  ASP192     -0.2456
    114  OD2        7.3810   -6.9200   26.1980 O.co2 192  ASP192     -0.2456
    115  N          6.7320   -3.8410   23.8630 N.am  193  ALA193     -0.1966
    116  CA         7.3170   -3.6630   22.5590 C.3   193  ALA193      0.1728
    117  C          7.6180   -5.0960   22.1300 C.2   193  ALA193      0.2616
    118  O          7.4120   -6.0470   22.8950 O.2   193  ALA193     -0.2715
    119  CB         8.6010   -2.8540   22.6510 C.3   193  ALA193      0.0334
    120  N          8.1440   -5.2630   20.9330 N.am  194  CYS194     -0.1954
    121  CA         8.4550   -6.6010   20.4590 C.3   194  CYS194      0.1843
    122  C          9.4600   -6.4560   19.3240 C.2   194  CYS194      0.2625
    123  O          9.9390   -5.3440   19.0530 O.2   194  CYS194     -0.2714
    124  CB         7.1730   -7.3100   19.9970 C.3   194  CYS194      0.0997
    125  SG         7.3080   -9.1100   19.8640 S.3   194  CYS194     -0.0797
    126  N          9.7990   -7.5710   18.6840 N.am  195  GLU195     -0.1963
    127  CA        10.7540   -7.5560   17.5850 C.3   195  GLU195      0.1733
    128  C         10.3640   -6.5310   16.5350 C.2   195  GLU195      0.2616
    129  O          9.2240   -6.5150   16.0910 O.2   195  GLU195     -0.2715
    130  CB        10.7790   -8.9100   16.9140 C.3   195  GLU195      0.0429
    131  CG        12.0040   -9.7170   17.1720 C.3   195  GLU195      0.1163
    132  CD        12.1190  -10.8390   16.1740 C.2   195  GLU195      0.3649
    133  OE1       12.5580  -10.5700   15.0300 O.co2 195  GLU195     -0.2457
    134  OE2       11.7390  -11.9780   16.5230 O.co2 195  GLU195     -0.2457
    135  N         11.3230   -5.7160   16.1070 N.am  196  GLY196     -0.1955
    136  CA        11.0480   -4.6970   15.1020 C.3   196  GLY196      0.1869
    137  C         10.8360   -3.3100   15.6890 C.2   196  GLY196      0.2309
    138  O         10.9270   -2.3230   14.9710 O.2   196  GLY196     -0.2863
    139  N         12.6800   -2.2070   18.2060 N.3   198  SER198     -0.1217
    140  CA        14.0250   -1.7790   18.6050 C.3   198  SER198      0.1889
    141  C         14.3640   -0.4330   18.0330 C.2   198  SER198      0.2288
    142  O         14.0770   -0.1780   16.8610 O.2   198  SER198     -0.2866
    143  CB        15.0910   -2.7430   18.0670 C.3   198  SER198      0.2089
    144  OG        15.2590   -3.9570   18.7560 O.3   198  SER198     -0.2183
    145  N         13.8600    2.0000   22.7880 N.3   218  VAL218     -0.1231
    146  CA        13.5140    0.5720   22.8730 C.3   218  VAL218      0.1692
    147  C         14.7920   -0.2560   22.6820 C.2   218  VAL218      0.2593
    148  O         15.4460   -0.1890   21.6310 O.2   218  VAL218     -0.2718
    149  CB        12.4380    0.1750   21.8020 C.3   218  VAL218      0.0266
    150  CG1       12.0030   -1.3050   21.9860 C.3   218  VAL218      0.0020
    151  CG2       11.2240    1.1080   21.8940 C.3   218  VAL218      0.0020
    152  N         15.1550   -1.0360   23.6940 N.am  219  SER219     -0.1938
    153  CA        16.3900   -1.8050   23.6190 C.3   219  SER219      0.2055
    154  C         16.1930   -3.3250   23.5730 C.2   219  SER219      0.2643
    155  O         16.4760   -3.9500   22.5500 O.2   219  SER219     -0.2714
    156  CB        17.3300   -1.3760   24.7690 C.3   219  SER219      0.2130
    157  OG        18.6160   -1.9600   24.6880 O.3   219  SER219     -0.2179
    158  N         15.6730   -3.9220   24.6390 N.am  220  TRP220     -0.1959
    159  CA        15.5200   -5.3670   24.6530 C.3   220  TRP220      0.1771
    160  C         14.4830   -5.8680   25.6300 C.2   220  TRP220      0.2620
    161  O         14.0410   -5.1520   26.5280 O.2   220  TRP220     -0.2715
    162  CB        16.8730   -6.0350   24.9790 C.3   220  TRP220      0.0590
    163  CG        17.4660   -5.6890   26.3510 C.ar  220  TRP220      0.0006
    164  CD1       18.2720   -4.6170   26.6570 C.ar  220  TRP220      0.0946
    165  CD2       17.2970   -6.4230   27.5790 C.ar  220  TRP220      0.0152
    166  NE1       18.6070   -4.6380   27.9930 N.ar  220  TRP220     -0.2442
    167  CE2       18.0240   -5.7330   28.5820 C.ar  220  TRP220      0.0810
    168  CE3       16.6040   -7.5900   27.9270 C.ar  220  TRP220      0.0012
    169  CZ2       18.0740   -6.1780   29.9100 C.ar  220  TRP220      0.0191
    170  CZ3       16.6490   -8.0310   29.2410 C.ar  220  TRP220      0.0001
    171  CH2       17.3810   -7.3240   30.2180 C.ar  220  TRP220      0.0015
    172  N         14.1480   -7.1400   25.4940 N.am  221  GLY221     -0.1940
    173  CA        13.1800   -7.7460   26.3870 C.3   221  GLY221      0.2014
    174  C         13.3330   -9.2330   26.1940 C.2   221  GLY221      0.2639
    175  O         14.0200   -9.6600   25.2800 O.2   221  GLY221     -0.2714
    176  N         12.7270  -10.0260   27.0590 N.am  222  GLU222     -0.1963
    177  CA        12.8100  -11.4760   26.9510 C.3   222  GLU222      0.1733
    178  C         11.3970  -11.9490   26.7060 C.2   222  GLU222      0.2617
    179  O         10.6380  -12.1850   27.6390 O.2   222  GLU222     -0.2715
    180  CB        13.3680  -12.0450   28.2500 C.3   222  GLU222      0.0429
    181  CG        14.6590  -11.3450   28.6550 C.3   222  GLU222      0.1163
    182  CD        15.1820  -11.7760   30.0010 C.2   222  GLU222      0.3649
    183  OE1       14.4610  -11.6160   31.0080 O.co2 222  GLU222     -0.2457
    184  OE2       16.3340  -12.2510   30.0470 O.co2 222  GLU222     -0.2457
    185  N         11.0220  -12.0280   25.4390 N.am  223  GLY223     -0.1940
    186  CA         9.6670  -12.4270   25.1240 C.3   223  GLY223      0.2014
    187  C          8.7090  -11.2470   25.3040 C.2   223  GLY223      0.2639
    188  O          8.6600  -10.5880   26.3640 O.2   223  GLY223     -0.2714
    189  N          7.9850  -10.9520   24.2300 N.am  224  CYS224     -0.1967
    190  CA         7.0390   -9.8530   24.1990 C.3   224  CYS224      0.1712
    191  C          5.7890  -10.0960   25.0140 C.2   224  CYS224      0.2296
    192  O          5.0750  -11.0720   24.7990 O.2   224  CYS224     -0.2864
    193  CB         6.6400   -9.5940   22.7670 C.3   224  CYS224      0.0983
    194  SG         8.0510   -9.6750   21.6570 S.3   224  CYS224     -0.0798
    195  N         10.0340   -4.6660   29.4670 N.3   231  GLY231     -0.1210
    196  CA        10.8560   -4.2150   28.3670 C.3   231  GLY231      0.1956
    197  C         11.9160   -3.3200   28.9600 C.2   231  GLY231      0.2612
    198  O         11.6720   -2.6730   29.9850 O.2   231  GLY231     -0.2717
    199  N         13.0950   -3.3060   28.3550 N.am  232  PHE232     -0.1962
    200  CA        14.1980   -2.4840   28.8290 C.3   232  PHE232      0.1771
    201  C         14.5340   -1.4150   27.8220 C.2   232  PHE232      0.2619
    202  O         14.5390   -1.6560   26.6060 O.2   232  PHE232     -0.2715
    203  CB        15.4150   -3.3430   29.1510 C.3   232  PHE232      0.0574
    204  CG        15.2950   -4.0640   30.4620 C.ar  232  PHE232     -0.0200
    205  CD1       14.5760   -5.2610   30.5530 C.ar  232  PHE232     -0.0042
    206  CD2       15.8580   -3.5220   31.6220 C.ar  232  PHE232     -0.0042
    207  CE1       14.4100   -5.9110   31.7830 C.ar  232  PHE232     -0.0003
    208  CE2       15.6980   -4.1590   32.8560 C.ar  232  PHE232     -0.0003
    209  CZ        14.9720   -5.3560   32.9350 C.ar  232  PHE232     -0.0000
    210  N         14.8330   -0.2310   28.3380 N.am  233  TYR233     -0.1974
    211  CA        15.1140    0.9190   27.5070 C.3   233  TYR233      0.1639
    212  C         16.4020    1.6020   27.8790 C.2   233  TYR233      0.2290
    213  O         16.7580    1.6650   29.0510 O.2   233  TYR233     -0.2864
    214  CB        13.9740    1.9610   27.6680 C.3   233  TYR233      0.0560
    215  CG        12.5960    1.4300   27.3610 C.ar  233  TYR233     -0.0198
    216  CD1       11.8950    0.6640   28.2960 C.ar  233  TYR233     -0.0009
    217  CD2       12.0410    1.5970   26.0970 C.ar  233  TYR233     -0.0009
    218  CE1       10.6880    0.0630   27.9670 C.ar  233  TYR233      0.0417
    219  CE2       10.8430    1.0050   25.7620 C.ar  233  TYR233      0.0417
    220  CZ        10.1750    0.2340   26.6890 C.ar  233  TYR233      0.1957
    221  OH         9.0270   -0.4150   26.3070 O.3   233  TYR233     -0.2866
@<TRIPOS>BOND
     1     7     6    1
     2     8     6    1
     3     6     5    1
     4     1     2    1
     5     5     2    1
     6     2     3    1
     7     3     9   am
     8     3     4    2
     9    52    53    1
    10    52    51    1
    11    52    55    1
    12    53    54    2
    13     9    10    1
    14    40    39    2
    15    56    55    1
    16    56    57    1
    17    12    11    2
    18    58    57    1
    19    58    59    1
    20    39    38    1
    21    10    11    1
    22    10    13    1
    23    13    14    1
    24    38    41    1
    25    38    37    1
    26    41    42    1
    27   138   137    2
    28   133   132   ar
    29   136   137    1
    30   136   135    1
    31    28    27    2
    32    25    26    1
    33    42    44   ar
    34    42    43   ar
    35    47    44   ar
    36    47    49   ar
    37    27    26    1
    38   129   128    2
    39   135   128   am
    40   132   134   ar
    41   132   131    1
    42    44    46   ar
    43    18    17    2
    44    49    50   ar
    45    43    45   ar
    46   128   127    1
    47    26    29    1
    48    29    30    1
    49    17    16    1
    50   142   141    2
    51   130   131    1
    52   130   127    1
    53    46    45   ar
    54    46    48   ar
    55    50    48   ar
    56   127   126    1
    57    32    30   ar
    58    32    34   ar
    59    30    31   ar
    60   141   140    1
    61   143   140    1
    62   143   144    1
    63    16    15    1
    64    16    19    1
    65   139   140    1
    66    22    24   ar
    67    22    20   ar
    68   126   122   am
    69    34    35   ar
    70   123   122    2
    71    31    33   ar
    72    24    23   ar
    73    19    20    1
    74   122   121    1
    75    20    21   ar
    76    71    73   ar
    77    71    69   ar
    78    73    72   ar
    79   125   124    1
    80   125   194    1
    81   124   121    1
    82    69    68   ar
    83    69    67   ar
    84    68    66   ar
    85    72    70   ar
    86    35    33   ar
    87    35    36    1
    88    23    21   ar
    89    67    70   ar
    90    67    65   ar
    91    66    65   ar
    92   121   120    1
    93    65    64    1
    94   120   117   am
    95    64    61    1
    96   148   147    2
    97   194   193    1
    98   149   151    1
    99   149   150    1
   100   149   146    1
   101   117   116    1
   102   117   118    2
   103    61    62    1
   104    61    60    1
   105   155   154    2
   106   116   119    1
   107   116   115    1
   108   147   146    1
   109   147   152   am
   110    63    62    2
   111   193   190    1
   112   145   146    1
   113    97    96    1
   114    98    96    1
   115   110   109    2
   116   154   153    1
   117   154   158   am
   118   153   152    1
   119   153   156    1
   120    96    95    1
   121   115   109   am
   122   109   108    1
   123   190   189    1
   124   190   191    1
   125   189   187   am
   126   158   159    1
   127   159   162    1
   128   159   160    1
   129   157   156    1
   130   192   191    2
   131    95    92    1
   132   162   163    1
   133   186   187    1
   134   186   185    1
   135   175   174    2
   136   187   188    2
   137   107   108    1
   138   108   111    1
   139   185   178   am
   140    92    93    1
   141    92    91    1
   142   172   160   am
   143   172   173    1
   144   160   161    2
   145   219   217   ar
   146   219   220   ar
   147   111   112    1
   148    94    93    2
   149   217   215   ar
   150    74    75    1
   151   174   173    1
   152   174   176   am
   153   114   112   ar
   154   112   113   ar
   155    91    85   am
   156   221   220    1
   157   163   164   ar
   158   163   165   ar
   159   202   201    2
   160   164   166   ar
   161   220   218   ar
   162   178   177    1
   163   178   179    2
   164   177   176    1
   165   177   180    1
   166    75    76    1
   167    75    78    1
   168   215   214    1
   169   215   216   ar
   170    85    86    2
   171    85    84    1
   172    77    76    2
   173   211   214    1
   174   211   212    1
   175   211   210    1
   176    76    83   am
   177   165   168   ar
   178   165   167   ar
   179   201   210   am
   180   201   200    1
   181   212   213    2
   182    83    84    1
   183   168   170   ar
   184   218   216   ar
   185   166   167   ar
   186    84    87    1
   187   180   181    1
   188   199   200    1
   189   199   197   am
   190   196   197    1
   191   196   195    1
   192   167   169   ar
   193    78    79    1
   194   181   182    1
   195   200   203    1
   196   197   198    2
   197   106   104    1
   198   203   204    1
   199   170   171   ar
   200    89    88    2
   201    87    88    1
   202    79    80    1
   203   169   171   ar
   204   182   184   ar
   205   182   183   ar
   206    88    90   am
   207   104   103    1
   208   204   205   ar
   209   204   206   ar
   210   205   207   ar
   211   105   103    1
   212    81    80   ar
   213    80    82   ar
   214   103   100    1
   215   206   208   ar
   216   207   209   ar
   217   100    99    1
   218   100   101    1
   219   208   209   ar
   220   101   102    2
