@<TRIPOS>MOLECULE
tmp/1addA00.pdb
 189 179 0 0 0
SMALL
GASTEIGER

@<TRIPOS>ATOM
      1  N          5.9630   23.9460   32.0960 N.3    14  HIS14      -0.1241
      2  CA         7.0690   23.0510   32.3920 C.3    14  HIS14       0.1621
      3  C          7.7490   22.5550   31.1290 C.2    14  HIS14       0.2264
      4  O          7.1020   21.9690   30.2730 O.2    14  HIS14      -0.2867
      5  CB         6.5490   21.8690   33.1890 C.3    14  HIS14       0.0745
      6  CG         5.8270   22.3070   34.4420 C.ar   14  HIS14       0.0817
      7  ND1        6.3510   22.2510   35.6550 N.ar   14  HIS14      -0.2268
      8  CD2        4.5500   22.7840   34.5340 C.ar   14  HIS14       0.1154
      9  CE1        5.4510   22.6740   36.5110 C.ar   14  HIS14       0.1986
     10  NE2        4.3800   22.9880   35.8180 N.ar   14  HIS14      -0.2212
     11  N          9.8380   19.7630   30.7150 N.3    16  ASP16      -0.1239
     12  CA         9.6420   18.3340   30.5550 C.3    16  ASP16       0.1674
     13  C          8.1700   18.0090   30.3100 C.2    16  ASP16       0.2266
     14  O          7.7490   16.8510   30.2910 O.2    16  ASP16      -0.2867
     15  CB        10.1720   17.5930   31.7760 C.3    16  ASP16       0.1410
     16  CG         9.7350   18.1910   33.1080 C.2    16  ASP16       0.3668
     17  OD1        8.9220   19.1070   33.0960 O.co2  16  ASP16      -0.2456
     18  OD2       10.2000   17.7360   34.1590 O.co2  16  ASP16      -0.2456
     19  N         -4.0800   15.0370   40.7120 N.3    55  LEU55      -0.1245
     20  CA        -2.7140   15.5020   40.6300 C.3    55  LEU55       0.1561
     21  C         -1.7410   14.3430   40.6300 C.2    55  LEU55       0.2260
     22  O         -1.0620   14.1460   39.6280 O.2    55  LEU55      -0.2867
     23  CB        -2.3660   16.4770   41.7480 C.3    55  LEU55       0.0270
     24  CG        -1.0850   17.2770   41.5650 C.3    55  LEU55       0.0019
     25  CD1       -1.0970   17.9480   40.2090 C.3    55  LEU55       0.0001
     26  CD2       -0.9310   18.3080   42.6610 C.3    55  LEU55       0.0001
     27  N         -2.0640   12.3580   37.1900 N.3    58  PHE58      -0.1227
     28  CA        -1.5270   13.0300   36.0250 C.3    58  PHE58       0.1736
     29  C         -0.0050   13.1190   36.1120 C.2    58  PHE58       0.2595
     30  O          0.7050   12.8190   35.1530 O.2    58  PHE58      -0.2718
     31  CB        -2.1470   14.4260   35.9160 C.3    58  PHE58       0.0547
     32  CG        -1.1220   15.5440   35.7540 C.ar   58  PHE58      -0.0202
     33  CD1       -0.4540   16.0370   36.8650 C.ar   58  PHE58      -0.0042
     34  CD2       -0.7590   15.9640   34.4880 C.ar   58  PHE58      -0.0042
     35  CE1        0.5920   16.9260   36.7040 C.ar   58  PHE58      -0.0003
     36  CE2        0.2830   16.8550   34.3390 C.ar   58  PHE58      -0.0003
     37  CZ         0.9610   17.3310   35.4410 C.ar   58  PHE58      -0.0000
     38  N          0.5370   13.1600   37.3240 N.am   59  LEU59      -0.1980
     39  CA         1.9820   13.2620   37.4560 C.3    59  LEU59       0.1596
     40  C          2.7070   11.9860   37.0440 C.2    59  LEU59       0.2287
     41  O          3.9370   11.9220   37.1170 O.2    59  LEU59      -0.2864
     42  CB         2.3540   13.5910   38.8930 C.3    59  LEU59       0.0297
     43  CG         2.2700   15.0420   39.3440 C.3    59  LEU59       0.0022
     44  CD1        2.6070   15.1330   40.8210 C.3    59  LEU59       0.0001
     45  CD2        3.2250   15.9190   38.5540 C.3    59  LEU59       0.0001
     46  N          4.4810   11.2670   33.3680 N.3    62  PHE62      -0.1241
     47  CA         5.8950   11.4960   33.1300 C.3    62  PHE62       0.1605
     48  C          6.6960   10.1990   33.1160 C.2    62  PHE62       0.2264
     49  O          7.7480   10.1220   32.4980 O.2    62  PHE62      -0.2867
     50  CB         6.4730   12.4160   34.2000 C.3    62  PHE62       0.0534
     51  CG         5.9950   13.8600   34.1100 C.ar   62  PHE62      -0.0203
     52  CD1        4.7630   14.2170   34.6230 C.ar   62  PHE62      -0.0042
     53  CD2        6.8050   14.8190   33.5400 C.ar   62  PHE62      -0.0042
     54  CE1        4.3480   15.5310   34.5630 C.ar   62  PHE62      -0.0003
     55  CE2        6.3840   16.1270   33.4840 C.ar   62  PHE62      -0.0003
     56  CZ         5.1570   16.4880   33.9940 C.ar   62  PHE62      -0.0000
     57  N         10.0630   10.4390   30.6250 N.3    66  MET66      -0.1245
     58  CA        11.2470   11.0490   31.1980 C.3    66  MET66       0.1570
     59  C         12.4840   10.1780   31.0810 C.2    66  MET66       0.2261
     60  O         13.5830   10.6960   30.9510 O.2    66  MET66      -0.2867
     61  CB        11.0260   11.3970   32.6680 C.3    66  MET66       0.0387
     62  CG        10.1530   12.6310   32.8630 C.3    66  MET66       0.0595
     63  SD        10.7650   14.0550   31.9310 S.3    66  MET66      -0.1393
     64  CE        12.0020   14.5960   33.0690 C.3    66  MET66       0.0692
     65  N         11.7710   23.7760   34.9900 N.3    99  TYR99      -0.1227
     66  CA        12.0110   22.3500   34.9760 C.3    99  TYR99       0.1736
     67  C         12.8740   21.9650   36.1470 C.2    99  TYR99       0.2596
     68  O         13.2320   22.8200   36.9450 O.2    99  TYR99      -0.2718
     69  CB        12.7530   21.9220   33.7140 C.3    99  TYR99       0.0548
     70  CG        14.1520   22.5250   33.6200 C.ar   99  TYR99      -0.0200
     71  CD1       14.3160   23.8130   33.1510 C.ar   99  TYR99      -0.0009
     72  CD2       15.2510   21.8010   34.0190 C.ar   99  TYR99      -0.0009
     73  CE1       15.5700   24.3790   33.0870 C.ar   99  TYR99       0.0417
     74  CE2       16.5130   22.3660   33.9590 C.ar   99  TYR99       0.0417
     75  CZ        16.6610   23.6530   33.4950 C.ar   99  TYR99       0.1957
     76  OH        17.9180   24.2290   33.4460 O.3    99  TYR99      -0.2866
     77  N         12.8030   20.7050   36.5300 N.am  100  SER100     -0.1952
     78  CA        13.6430   20.2720   37.6100 C.3   100  SER100      0.1924
     79  C         14.9530   19.8270   37.0180 C.2   100  SER100      0.2314
     80  O         14.9830   18.9200   36.2020 O.2   100  SER100     -0.2863
     81  CB        13.0400   19.0970   38.3390 C.3   100  SER100      0.2116
     82  OG        14.0160   18.5730   39.2200 O.3   100  SER100     -0.2180
     83  N         15.7190   15.9970   37.9770 N.3   103  LEU103     -0.1245
     84  CA        15.0180   14.9010   37.3500 C.3   103  LEU103      0.1561
     85  C         15.5850   14.5470   35.9970 C.2   103  LEU103      0.2260
     86  O         14.9750   13.7720   35.2780 O.2   103  LEU103     -0.2867
     87  CB        13.5470   15.2380   37.2030 C.3   103  LEU103      0.0270
     88  CG        12.7330   15.3170   38.4920 C.3   103  LEU103      0.0019
     89  CD1       11.2860   15.6580   38.1910 C.3   103  LEU103      0.0001
     90  CD2       12.8020   14.0030   39.2410 C.3   103  LEU103      0.0001
     91  N         14.2620    7.6120   37.7290 N.3   114  TRP114     -0.1241
     92  CA        14.0770    6.7370   36.5860 C.3   114  TRP114      0.1605
     93  C         14.9940    5.5060   36.5490 C.2   114  TRP114      0.2264
     94  O         15.0320    4.7880   35.5480 O.2   114  TRP114     -0.2867
     95  CB        14.2520    7.5580   35.3160 C.3   114  TRP114      0.0550
     96  CG        13.7200    8.9780   35.4480 C.ar  114  TRP114      0.0003
     97  CD1       14.5610   10.0430   35.2890 C.ar  114  TRP114      0.0946
     98  CD2       12.4250    9.3400   35.7450 C.ar  114  TRP114      0.0152
     99  NE1       13.7910   11.0840   35.4940 N.ar  114  TRP114     -0.2442
    100  CE2       12.5220   10.7240   35.7730 C.ar  114  TRP114      0.0810
    101  CE3       11.1950    8.7340   35.9030 C.ar  114  TRP114      0.0012
    102  CZ2       11.4090   11.5170   35.9710 C.ar  114  TRP114      0.0191
    103  CZ3       10.0770    9.5310   36.0950 C.ar  114  TRP114      0.0001
    104  CH2       10.1820   10.9090   36.1320 C.ar  114  TRP114      0.0015
    105  N         13.0190   24.3180   39.4580 N.3   150  CYS150     -0.1235
    106  CA        12.0460   23.8210   40.4170 C.3   150  CYS150      0.1677
    107  C         12.6250   22.9910   41.5570 C.2   150  CYS150      0.2270
    108  O         13.1940   21.9290   41.3110 O.2   150  CYS150     -0.2867
    109  CB        11.0600   22.8960   39.7360 C.3   150  CYS150      0.0956
    110  SG         9.9910   23.6700   38.5110 S.3   150  CYS150     -0.0801
    111  N         11.4290   20.0900   44.0620 N.3   152  MET152     -0.1245
    112  CA        10.3520   19.1160   44.0630 C.3   152  MET152      0.1570
    113  C          9.8230   18.8940   45.4630 C.2   152  MET152      0.2261
    114  O         10.5890   18.7220   46.4040 O.2   152  MET152     -0.2867
    115  CB        10.8920   17.8280   43.4700 C.3   152  MET152      0.0387
    116  CG        11.2200   18.0070   42.0010 C.3   152  MET152      0.0595
    117  SD         9.7710   18.6030   41.1030 S.3   152  MET152     -0.1393
    118  CE        10.5470   19.5940   39.8710 C.3   152  MET152      0.0692
    119  N          7.4390   22.7400   42.7630 N.3   180  ALA180     -0.1231
    120  CA         6.3920   21.9840   42.1180 C.3   180  ALA180      0.1694
    121  C          6.3270   20.5620   42.6430 C.2   180  ALA180      0.2592
    122  O          6.7710   20.2890   43.7540 O.2   180  ALA180     -0.2718
    123  CB         6.6640   21.9370   40.6260 C.3   180  ALA180      0.0304
    124  N          5.5220   19.7100   42.0130 N.am  181  GLY181     -0.1957
    125  CA         5.4340   18.3440   42.4770 C.3   181  GLY181      0.1869
    126  C          4.0680   18.0380   43.0490 C.2   181  GLY181      0.2309
    127  O          3.1880   18.8900   43.0580 O.2   181  GLY181     -0.2863
    128  N          1.2960   18.4020   45.2770 N.3   183  GLU183     -0.1245
    129  CA         0.8150   19.3240   46.2700 C.3   183  GLU183      0.1567
    130  C          0.0060   18.6230   47.3500 C.2   183  GLU183      0.2260
    131  O         -0.3340   19.2350   48.3580 O.2   183  GLU183     -0.2867
    132  CB        -0.0580   20.3650   45.5900 C.3   183  GLU183      0.0388
    133  CG        -0.2280   21.6070   46.4400 C.3   183  GLU183      0.1160
    134  CD        -1.2240   22.5820   45.8480 C.2   183  GLU183      0.3649
    135  OE1       -1.4330   22.5480   44.6390 O.co2 183  GLU183     -0.2457
    136  OE2       -1.7890   23.3690   46.6010 O.co2 183  GLU183     -0.2457
    137  N          4.0820   26.7750   43.3350 N.3   211  HIS211     -0.1241
    138  CA         2.8490   26.1280   42.9140 C.3   211  HIS211      0.1621
    139  C          1.9910   25.9970   44.1670 C.2   211  HIS211      0.2264
    140  O          2.5100   25.6450   45.2360 O.2   211  HIS211     -0.2867
    141  CB         3.1240   24.7270   42.3580 C.3   211  HIS211      0.0745
    142  CG         3.5310   24.6480   40.8980 C.ar  211  HIS211      0.0817
    143  ND1        4.7700   24.8440   40.4740 N.ar  211  HIS211     -0.2268
    144  CD2        2.7900   24.1750   39.8460 C.ar  211  HIS211      0.1154
    145  CE1        4.8370   24.5090   39.2030 C.ar  211  HIS211      0.1986
    146  NE2        3.6380   24.1040   38.8460 N.ar  211  HIS211     -0.2212
    147  N         -3.3510   25.0490   43.6150 N.3   214  GLU214     -0.1245
    148  CA        -3.8030   24.3800   42.4160 C.3   214  GLU214      0.1567
    149  C         -4.7420   23.2650   42.8080 C.2   214  GLU214      0.2260
    150  O         -5.9200   23.2690   42.4610 O.2   214  GLU214     -0.2867
    151  CB        -2.6170   23.7940   41.6870 C.3   214  GLU214      0.0388
    152  CG        -3.0350   22.8350   40.5930 C.3   214  GLU214      0.1160
    153  CD        -1.8270   22.3410   39.8200 C.2   214  GLU214      0.3649
    154  OE1       -0.7240   22.3610   40.3810 O.co2 214  GLU214     -0.2457
    155  OE2       -1.9890   21.9550   38.6630 O.co2 214  GLU214     -0.2457
    156  N         -6.5320   18.2820   35.7300 N.3   266  THR266     -0.1218
    157  CA        -5.9320   17.7060   36.9160 C.3   266  THR266      0.1862
    158  C         -6.9670   17.5250   38.0050 C.2   266  THR266      0.2287
    159  O         -6.6500   17.0920   39.1120 O.2   266  THR266     -0.2866
    160  CB        -4.8310   18.6040   37.4740 C.3   266  THR266      0.1770
    161  OG1       -5.5150   19.7600   37.9330 O.3   266  THR266     -0.2211
    162  CG2       -3.7650   18.9520   36.4480 C.3   266  THR266      0.0375
    163  N          1.0550   25.3130   31.2800 N.3   292  ASP292     -0.1225
    164  CA         1.4540   24.3050   32.2630 C.3   292  ASP292      0.1805
    165  C          2.1310   23.0680   31.6860 C.2   292  ASP292      0.2597
    166  O          3.3390   22.9070   31.8150 O.2   292  ASP292     -0.2718
    167  CB         0.2580   23.8970   33.1280 C.3   292  ASP292      0.1424
    168  CG         0.6070   23.5180   34.5730 C.2   292  ASP292      0.3668
    169  OD1        1.7500   23.6890   35.0090 O.co2 292  ASP292     -0.2456
    170  OD2       -0.2880   23.0510   35.2780 O.co2 292  ASP292     -0.2456
    171  N          1.4120   22.1800   31.0020 N.am  293  ASP293     -0.1974
    172  CA         2.0570   20.9800   30.4720 C.3   293  ASP293      0.1709
    173  C          1.4420   20.5570   29.1320 C.2   293  ASP293      0.2293
    174  O          0.6060   19.6600   29.1080 O.2   293  ASP293     -0.2864
    175  CB         1.8760   19.8330   31.4610 C.3   293  ASP293      0.1436
    176  CG         2.5690   19.9920   32.8120 C.2   293  ASP293      0.3671
    177  OD1        3.7550   19.6870   32.9110 O.co2 293  ASP293     -0.2456
    178  OD2        1.9060   20.3480   33.7890 O.co2 293  ASP293     -0.2456
    179  N         -1.5170   17.6600   28.3520 N.3   297  PHE297     -0.1241
    180  CA        -2.8950   18.0750   28.2320 C.3   297  PHE297      0.1605
    181  C         -3.2940   18.1790   26.7720 C.2   297  PHE297      0.2264
    182  O         -4.4690   18.3550   26.4540 O.2   297  PHE297     -0.2867
    183  CB        -3.0890   19.4050   28.9390 C.3   297  PHE297      0.0534
    184  CG        -2.7310   19.3290   30.4220 C.ar  297  PHE297     -0.0203
    185  CD1       -3.1440   18.2520   31.1770 C.ar  297  PHE297     -0.0042
    186  CD2       -1.9840   20.3320   31.0100 C.ar  297  PHE297     -0.0042
    187  CE1       -2.8100   18.1800   32.5080 C.ar  297  PHE297     -0.0003
    188  CE2       -1.6580   20.2510   32.3460 C.ar  297  PHE297     -0.0003
    189  CZ        -2.0710   19.1760   33.0930 C.ar  297  PHE297     -0.0000
@<TRIPOS>BOND
     1   182   181    2
     2   181   180    1
     3   180   179    1
     4   180   183    1
     5   183   184    1
     6   174   173    2
     7   173   172    1
     8     4     3    2
     9    14    13    2
    10    13    12    1
    11   184   186   ar
    12   184   185   ar
    13   172   171    1
    14   172   175    1
    15    12    11    1
    16    12    15    1
    17    57    58    1
    18    60    59    2
    19   171   165   am
    20   186   188   ar
    21    59    58    1
    22     3     2    1
    23   185   187   ar
    24    58    61    1
    25   163   164    1
    26   175   176    1
    27   165   166    2
    28   165   164    1
    29    15    16    1
    30    63    62    1
    31    63    64    1
    32     1     2    1
    33   164   167    1
    34   188   189   ar
    35     2     5    1
    36    49    48    2
    37   187   189   ar
    38    61    62    1
    39   176   177   ar
    40   176   178   ar
    41    73    71   ar
    42    73    75   ar
    43    17    16   ar
    44    16    18   ar
    45    48    47    1
    46   167   168    1
    47    47    46    1
    48    47    50    1
    49    71    70   ar
    50     5     6    1
    51    76    75    1
    52    55    53   ar
    53    55    56   ar
    54    75    74   ar
    55    53    51   ar
    56    70    69    1
    57    70    72   ar
    58    69    66    1
    59    74    72   ar
    60    56    54   ar
    61    51    50    1
    62    51    52   ar
    63    36    34   ar
    64    36    37   ar
    65     6     8   ar
    66     6     7   ar
    67    34    32   ar
    68     8    10   ar
    69    54    52   ar
    70   168   169   ar
    71   168   170   ar
    72    66    65    1
    73    66    67    1
    74    30    29    2
    75    86    85    2
    76    97    96   ar
    77    97    99   ar
    78    95    96    1
    79    95    92    1
    80    37    35   ar
    81    96    98   ar
    82    99   100   ar
    83    94    93    2
    84     7     9   ar
    85   156   157    1
    86    98   100   ar
    87    98   101   ar
    88    32    31    1
    89    32    33   ar
    90   100   102   ar
    91    10     9   ar
    92   101   103   ar
    93    31    28    1
    94   102   104   ar
    95    85    84    1
    96    28    29    1
    97    28    27    1
    98   103   104   ar
    99    29    38   am
   100    67    77   am
   101    67    68    2
   102    80    79    2
   103   162   160    1
   104    77    78    1
   105    93    92    1
   106    92    91    1
   107    35    33   ar
   108   157   160    1
   109   157   158    1
   110    79    78    1
   111    40    41    2
   112    40    39    1
   113    87    84    1
   114    87    88    1
   115    38    39    1
   116    84    83    1
   117    39    42    1
   118   160   161    1
   119    78    81    1
   120   158   159    2
   121    89    88    1
   122    81    82    1
   123    88    90    1
   124   110   109    1
   125    45    43    1
   126   155   153   ar
   127   146   145   ar
   128   146   144   ar
   129    42    43    1
   130   145   143   ar
   131    43    44    1
   132   105   106    1
   133    22    21    2
   134   109   106    1
   135   153   154   ar
   136   153   152    1
   137   144   142   ar
   138   118   117    1
   139    25    24    1
   140   106   107    1
   141   143   142   ar
   142   152   151    1
   143   123   120    1
   144    21    20    1
   145    20    19    1
   146    20    23    1
   147   142   141    1
   148   117   116    1
   149   108   107    2
   150    24    23    1
   151    24    26    1
   152   151   148    1
   153   116   115    1
   154   124   125    1
   155   124   121   am
   156   120   121    1
   157   120   119    1
   158   141   138    1
   159   148   149    1
   160   148   147    1
   161   150   149    2
   162   125   126    1
   163   121   122    2
   164   138   137    1
   165   138   139    1
   166   126   127    2
   167   115   112    1
   168   111   112    1
   169   112   113    1
   170   139   140    2
   171   135   134   ar
   172   128   129    1
   173   113   114    2
   174   132   129    1
   175   132   133    1
   176   134   133    1
   177   134   136   ar
   178   129   130    1
   179   130   131    2
