@<TRIPOS>MOLECULE
tmp/1adjB00.pdb
 147 140 0 0 0
SMALL
GASTEIGER

@<TRIPOS>ATOM
      1  N         57.4580   42.4590   27.0410 N.3    79  PRO79      -0.2102
      2  CA        58.0690   42.3550   25.7100 C.3    79  PRO79       0.1504
      3  C         58.8900   41.0790   25.5420 C.2    79  PRO79       0.2575
      4  O         59.2580   40.7160   24.4260 O.2    79  PRO79      -0.2718
      5  CB        58.9750   43.5740   25.6750 C.3    79  PRO79       0.0282
      6  CG        59.5040   43.5930   27.0700 C.3    79  PRO79       0.0208
      7  CD        58.2870   43.2980   27.9270 C.3    79  PRO79       0.0893
      8  N         59.1500   40.3990   26.6570 N.am   80  GLU80      -0.1980
      9  CA        59.9420   39.1780   26.6800 C.3    80  GLU80       0.1602
     10  C         59.6880   38.4690   28.0210 C.2    80  GLU80       0.2287
     11  O         59.2630   39.1080   28.9860 O.2    80  GLU80      -0.2864
     12  CB        61.4190   39.5550   26.4590 C.3    80  GLU80       0.0415
     13  CG        62.4720   38.7290   27.1840 C.3    80  GLU80       0.1163
     14  CD        62.7870   39.2470   28.5810 C.2    80  GLU80       0.3649
     15  OE1       62.4920   40.4220   28.8870 O.co2  80  GLU80      -0.2457
     16  OE2       63.3410   38.4720   29.3770 O.co2  80  GLU80      -0.2457
     17  N         62.0010   36.1430   30.0610 N.3    82  THR82      -0.1218
     18  CA        63.0540   35.8840   31.0500 C.3    82  THR82       0.1862
     19  C         63.0410   36.7250   32.3400 C.2    82  THR82       0.2287
     20  O         63.0260   36.1750   33.4480 O.2    82  THR82      -0.2866
     21  CB        64.4340   35.9690   30.3900 C.3    82  THR82       0.1770
     22  OG1       64.3810   35.3010   29.1240 O.3    82  THR82      -0.2211
     23  CG2       65.4830   35.3150   31.2720 C.3    82  THR82       0.0375
     24  N         55.5960   44.2230   21.6150 N.3   111  ARG111     -0.1245
     25  CA        56.6680   45.1200   21.2420 C.3   111  ARG111      0.1563
     26  C         56.1720   46.2670   20.3650 C.2   111  ARG111      0.2260
     27  O         55.6480   46.0520   19.2730 O.2   111  ARG111     -0.2867
     28  CB        57.7900   44.3480   20.5450 C.3   111  ARG111      0.0307
     29  CG        59.0560   44.3290   21.3730 C.3   111  ARG111      0.0489
     30  CD        59.2860   42.9990   22.0220 C.3   111  ARG111      0.2205
     31  NE        60.0550   42.1500   21.1290 N.pl3 111  ARG111     -0.0865
     32  CZ        61.0650   41.3790   21.5150 C.cat 111  ARG111      0.5346
     33  NH1       61.4280   41.3420   22.7870 N.pl3 111  ARG111      0.1354
     34  NH2       61.7250   40.6520   20.6250 N.pl3 111  ARG111      0.1354
     35  N         55.2690   33.4350   22.1460 N.3   125  GLN125     -0.1245
     36  CA        56.4660   32.6210   22.2400 C.3   125  GLN125      0.1566
     37  C         56.4500   31.6080   23.3670 C.2   125  GLN125      0.2260
     38  O         55.7370   31.7780   24.3610 O.2   125  GLN125     -0.2867
     39  CB        57.7210   33.5070   22.3330 C.3   125  GLN125      0.0367
     40  CG        57.9480   34.2360   23.6570 C.3   125  GLN125      0.0905
     41  CD        59.2120   35.0970   23.6370 C.2   125  GLN125      0.2608
     42  OE1       59.6300   35.5740   22.5810 O.2   125  GLN125     -0.2717
     43  NE2       59.8320   35.2810   24.8010 N.am  125  GLN125     -0.0878
     44  N         58.6350   29.8780   26.1420 N.3   127  ASN127     -0.1240
     45  CA        59.7920   30.3090   26.9050 C.3   127  ASN127      0.1653
     46  C         60.2060   29.2430   27.9110 C.2   127  ASN127      0.2266
     47  O         59.3740   28.7490   28.6770 O.2   127  ASN127     -0.2867
     48  CB        59.4180   31.6060   27.6260 C.3   127  ASN127      0.1155
     49  CG        60.5980   32.2900   28.2790 C.2   127  ASN127      0.2627
     50  OD1       61.2230   33.1760   27.6820 O.2   127  ASN127     -0.2716
     51  ND2       60.8610   31.9480   29.5380 N.am  127  ASN127     -0.0877
     52  N         63.2080   28.1400   30.9000 N.3   129  GLU129     -0.1245
     53  CA        64.1580   28.7510   31.8120 C.3   129  GLU129      0.1567
     54  C         64.6830   27.7320   32.8190 C.2   129  GLU129      0.2260
     55  O         63.9110   26.9590   33.3670 O.2   129  GLU129     -0.2867
     56  CB        63.4220   29.8760   32.5560 C.3   129  GLU129      0.0388
     57  CG        64.0370   31.2680   32.5090 C.3   129  GLU129      0.1160
     58  CD        64.3200   31.7710   31.1050 C.2   129  GLU129      0.3649
     59  OE1       65.4230   31.4880   30.5960 O.co2 129  GLU129     -0.2457
     60  OE2       63.4690   32.4750   30.5260 O.co2 129  GLU129     -0.2457
     61  N         72.7510   39.3010   20.6180 N.3   258  ARG258     -0.1245
     62  CA        71.3740   39.0840   21.0150 C.3   258  ARG258      0.1563
     63  C         70.7830   40.4410   21.4000 C.2   258  ARG258      0.2260
     64  O         71.4480   41.2570   22.0390 O.2   258  ARG258     -0.2867
     65  CB        71.3250   38.1020   22.1850 C.3   258  ARG258      0.0307
     66  CG        72.1000   36.8070   21.9430 C.3   258  ARG258      0.0489
     67  CD        71.2210   35.5630   22.0670 C.3   258  ARG258      0.2205
     68  NE        70.2290   35.4520   20.9980 N.pl3 258  ARG258     -0.0865
     69  CZ        68.9100   35.5010   21.1810 C.cat 258  ARG258      0.5346
     70  NH1       68.4040   35.6630   22.3970 N.pl3 258  ARG258      0.1354
     71  NH2       68.0900   35.3880   20.1430 N.pl3 258  ARG258      0.1354
     72  N         69.0510   41.5360   23.7070 N.3   260  LEU260     -0.1245
     73  CA        68.8540   41.8740   25.1110 C.3   260  LEU260      0.1561
     74  C         70.2150   41.9810   25.7780 C.2   260  LEU260      0.2260
     75  O         71.1400   41.2690   25.4140 O.2   260  LEU260     -0.2867
     76  CB        67.9740   40.8290   25.7990 C.3   260  LEU260      0.0270
     77  CG        66.6000   40.6200   25.1500 C.3   260  LEU260      0.0019
     78  CD1       66.6390   39.4750   24.1460 C.3   260  LEU260      0.0001
     79  CD2       65.5780   40.3350   26.2150 C.3   260  LEU260      0.0001
     80  N         71.1060   41.3320   29.0980 N.3   262  TYR262     -0.1227
     81  CA        71.3870   40.5720   30.3210 C.3   262  TYR262      0.1736
     82  C         72.2140   39.2880   30.1160 C.2   262  TYR262      0.2595
     83  O         72.6000   38.6190   31.0840 O.2   262  TYR262     -0.2718
     84  CB        70.0840   40.2700   31.0890 C.3   262  TYR262      0.0548
     85  CG        68.9690   39.6170   30.2830 C.ar  262  TYR262     -0.0200
     86  CD1       69.2410   38.6190   29.3430 C.ar  262  TYR262     -0.0009
     87  CD2       67.6400   39.9910   30.4730 C.ar  262  TYR262     -0.0009
     88  CE1       68.2250   38.0140   28.6170 C.ar  262  TYR262      0.0417
     89  CE2       66.6140   39.3920   29.7520 C.ar  262  TYR262      0.0417
     90  CZ        66.9130   38.4020   28.8250 C.ar  262  TYR262      0.1957
     91  OH        65.8990   37.7950   28.1150 O.3   262  TYR262     -0.2866
     92  N         72.4930   38.9690   28.8550 N.am  263  TYR263     -0.1976
     93  CA        73.2460   37.7750   28.4920 C.3   263  TYR263      0.1639
     94  C         74.7160   37.7590   28.9060 C.2   263  TYR263      0.2290
     95  O         75.4460   38.7380   28.7310 O.2   263  TYR263     -0.2864
     96  CB        73.1620   37.5420   26.9860 C.3   263  TYR263      0.0560
     97  CG        71.8230   37.0330   26.5020 C.ar  263  TYR263     -0.0198
     98  CD1       71.2820   35.8400   26.9980 C.ar  263  TYR263     -0.0009
     99  CD2       71.1160   37.7170   25.5120 C.ar  263  TYR263     -0.0009
    100  CE1       70.0750   35.3440   26.5140 C.ar  263  TYR263      0.0417
    101  CE2       69.9050   37.2260   25.0210 C.ar  263  TYR263      0.0417
    102  CZ        69.3950   36.0420   25.5220 C.ar  263  TYR263      0.1957
    103  OH        68.2260   35.5450   25.0050 O.3   263  TYR263     -0.2866
    104  N         65.8610   31.5180   20.1010 N.3   283  GLY283     -0.1210
    105  CA        67.2020   31.5780   20.6300 C.3   283  GLY283      0.1956
    106  C         67.1990   31.7490   22.1320 C.2   283  GLY283      0.2612
    107  O         66.1470   31.6860   22.7670 O.2   283  GLY283     -0.2717
    108  N         68.3820   31.9470   22.7030 N.am  284  GLY284     -0.1942
    109  CA        68.4940   32.1160   24.1370 C.3   284  GLY284      0.2014
    110  C         69.9430   32.1660   24.5610 C.2   284  GLY284      0.2639
    111  O         70.8390   32.3520   23.7330 O.2   284  GLY284     -0.2714
    112  N         70.1770   31.9860   25.8510 N.am  285  GLY285     -0.1954
    113  CA        71.5280   32.0210   26.3610 C.3   285  GLY285      0.1869
    114  C         71.5390   32.1040   27.8730 C.2   285  GLY285      0.2309
    115  O         70.4830   32.0210   28.5190 O.2   285  GLY285     -0.2863
    116  N         72.3240   34.0270   31.5530 N.3   287  TYR287     -0.1241
    117  CA        72.1020   35.3910   32.0260 C.3   287  TYR287      0.1605
    118  C         72.2540   35.5330   33.5350 C.2   287  TYR287      0.2264
    119  O         71.3410   35.9820   34.2280 O.2   287  TYR287     -0.2867
    120  CB        70.6990   35.8690   31.5930 C.3   287  TYR287      0.0534
    121  CG        69.5920   34.8910   31.9460 C.ar  287  TYR287     -0.0201
    122  CD1       69.0420   34.8670   33.2220 C.ar  287  TYR287     -0.0009
    123  CD2       69.1630   33.9360   31.0290 C.ar  287  TYR287     -0.0009
    124  CE1       68.1100   33.9190   33.5850 C.ar  287  TYR287      0.0417
    125  CE2       68.2290   32.9820   31.3810 C.ar  287  TYR287      0.0417
    126  CZ        67.7110   32.9790   32.6630 C.ar  287  TYR287      0.1957
    127  OH        66.8160   32.0140   33.0340 O.3   287  TYR287     -0.2866
    128  N         68.2680   29.6840   29.2500 N.3   303  GLY303     -0.1210
    129  CA        66.9470   29.4100   28.7410 C.3   303  GLY303      0.1956
    130  C         66.8760   29.8190   27.3020 C.2   303  GLY303      0.2612
    131  O         67.8890   30.2110   26.7100 O.2   303  GLY303     -0.2717
    132  N         65.6830   29.7140   26.7370 N.am  304  PHE304     -0.1962
    133  CA        65.4590   30.0880   25.3540 C.3   304  PHE304      0.1771
    134  C         63.9930   30.4470   25.1980 C.2   304  PHE304      0.2619
    135  O         63.2030   30.3390   26.1460 O.2   304  PHE304     -0.2715
    136  CB        65.8260   28.9380   24.4100 C.3   304  PHE304      0.0574
    137  CG        64.9220   27.7420   24.5220 C.ar  304  PHE304     -0.0200
    138  CD1       63.7280   27.6850   23.8000 C.ar  304  PHE304     -0.0042
    139  CD2       65.2690   26.6640   25.3360 C.ar  304  PHE304     -0.0042
    140  CE1       62.8970   26.5790   23.8850 C.ar  304  PHE304     -0.0003
    141  CE2       64.4420   25.5470   25.4310 C.ar  304  PHE304     -0.0003
    142  CZ        63.2520   25.5040   24.7040 C.ar  304  PHE304     -0.0000
    143  N         63.6430   30.8770   23.9980 N.am  305  ALA305     -0.1977
    144  CA        62.2820   31.2330   23.6670 C.3   305  ALA305      0.1597
    145  C         62.2080   31.1580   22.1610 C.2   305  ALA305      0.2287
    146  O         63.2240   31.3040   21.4840 O.2   305  ALA305     -0.2864
    147  CB        61.9790   32.6360   24.1390 C.3   305  ALA305      0.0319
@<TRIPOS>BOND
     1    27    26    2
     2   104   105    1
     3    71    69    1
     4    26    25    1
     5    28    25    1
     6    28    29    1
     7    61    62    1
     8    34    32    1
     9   105   106    1
    10    68    69    2
    11    68    67    1
    12    62    63    1
    13    62    65    1
    14    31    32    2
    15    31    30    1
    16    69    70    1
    17    25    24    1
    18    29    30    1
    19    63    64    2
    20   146   145    2
    21    32    33    1
    22    66    67    1
    23    66    65    1
    24   106   108   am
    25   106   107    2
    26    35    36    1
    27   145   144    1
    28    36    39    1
    29    36    37    1
    30    39    40    1
    31    42    41    2
    32   108   109    1
    33    37    38    2
    34    41    40    1
    35    41    43   am
    36   144   143    1
    37   144   147    1
    38    72    73    1
    39   111   110    2
    40   138   140   ar
    41   138   137   ar
    42   140   142   ar
    43   143   134   am
    44   109   110    1
    45    78    77    1
    46   136   137    1
    47   136   133    1
    48     4     3    2
    49   137   139   ar
    50   110   112   am
    51   142   141   ar
    52   103   102    1
    53   101    99   ar
    54   101   102   ar
    55    73    74    1
    56    73    76    1
    57    77    76    1
    58    77    79    1
    59   134   133    1
    60   134   135    2
    61   139   141   ar
    62   133   132    1
    63    75    74    2
    64    99    97   ar
    65   102   100   ar
    66     3     2    1
    67     3     8   am
    68     5     2    1
    69     5     6    1
    70     2     1    1
    71   112   113    1
    72    44    45    1
    73   113   114    1
    74    12     9    1
    75    12    13    1
    76    97    96    1
    77    97    98   ar
    78   100    98   ar
    79     8     9    1
    80     9    10    1
    81   131   130    2
    82   132   130   am
    83    45    48    1
    84    45    46    1
    85    96    93    1
    86     1     7    1
    87     6     7    1
    88    13    14    1
    89   130   129    1
    90    48    49    1
    91    50    49    2
    92   114   115    2
    93    46    47    2
    94    10    11    2
    95    91    90    1
    96    49    51   am
    97    93    92    1
    98    93    94    1
    99    14    15   ar
   100    14    16   ar
   101    88    90   ar
   102    88    86   ar
   103    95    94    2
   104   129   128    1
   105    90    89   ar
   106    92    82   am
   107    80    81    1
   108    22    21    1
   109    86    85   ar
   110    89    87   ar
   111    17    18    1
   112    82    81    1
   113    82    83    2
   114    85    87   ar
   115    85    84    1
   116    81    84    1
   117    21    18    1
   118    21    23    1
   119    60    58   ar
   120    59    58   ar
   121    52    53    1
   122   123   125   ar
   123   123   121   ar
   124    18    19    1
   125    58    57    1
   126   125   126   ar
   127   116   117    1
   128   120   121    1
   129   120   117    1
   130    53    56    1
   131    53    54    1
   132   121   122   ar
   133   117   118    1
   134    19    20    2
   135    57    56    1
   136   126   127    1
   137   126   124   ar
   138    54    55    2
   139   122   124   ar
   140   118   119    2
