@<TRIPOS>MOLECULE
tmp/1adlA00.pdb
 218 201 0 0 0
SMALL
GASTEIGER

@<TRIPOS>ATOM
      1  N        -53.0580   66.8910    0.0760 N.3    16  PHE16      -0.1241
      2  CA       -52.6850   67.6550   -1.1120 C.3    16  PHE16       0.1605
      3  C        -53.7480   68.6690   -1.5480 C.2    16  PHE16       0.2264
      4  O        -53.4190   69.8090   -1.8820 O.2    16  PHE16      -0.2867
      5  CB       -52.3120   66.7120   -2.2620 C.3    16  PHE16       0.0534
      6  CG       -51.6390   67.4010   -3.4130 C.ar   16  PHE16      -0.0203
      7  CD1      -50.5970   68.2890   -3.1890 C.ar   16  PHE16      -0.0042
      8  CD2      -52.0690   67.1810   -4.7160 C.ar   16  PHE16      -0.0042
      9  CE1      -49.9890   68.9550   -4.2520 C.ar   16  PHE16      -0.0003
     10  CE2      -51.4700   67.8380   -5.7840 C.ar   16  PHE16      -0.0003
     11  CZ       -50.4290   68.7280   -5.5500 C.ar   16  PHE16      -0.0000
     12  N        -53.5840   71.6330    0.7030 N.3    19  TYR19      -0.1227
     13  CA       -52.4200   72.4520    0.4010 C.3    19  TYR19       0.1736
     14  C        -52.7420   73.3350   -0.8100 C.2    19  TYR19       0.2595
     15  O        -52.4990   74.5440   -0.7830 O.2    19  TYR19      -0.2718
     16  CB       -51.1970   71.5690    0.1070 C.3    19  TYR19       0.0548
     17  CG       -50.0100   72.3240   -0.4520 C.ar   19  TYR19      -0.0200
     18  CD1      -49.1920   73.0960    0.3760 C.ar   19  TYR19      -0.0009
     19  CD2      -49.7310   72.2980   -1.8210 C.ar   19  TYR19      -0.0009
     20  CE1      -48.1280   73.8330   -0.1520 C.ar   19  TYR19       0.0417
     21  CE2      -48.6690   73.0290   -2.3560 C.ar   19  TYR19       0.0417
     22  CZ       -47.8760   73.7930   -1.5200 C.ar   19  TYR19       0.1957
     23  OH       -46.8460   74.5380   -2.0530 O.3    19  TYR19      -0.2866
     24  N        -53.2970   72.7390   -1.8630 N.am   20  MET20      -0.1979
     25  CA       -53.6390   73.4930   -3.0690 C.3    20  MET20       0.1605
     26  C        -54.6810   74.5700   -2.7610 C.2    20  MET20       0.2287
     27  O        -54.6150   75.6850   -3.2990 O.2    20  MET20      -0.2864
     28  CB       -54.1230   72.5670   -4.1840 C.3    20  MET20       0.0413
     29  CG       -53.0090   71.7530   -4.8350 C.3    20  MET20       0.0598
     30  SD       -53.6040   70.7520   -6.1800 S.3    20  MET20      -0.1393
     31  CE       -54.7890   69.5760   -5.5650 C.3    20  MET20       0.0692
     32  N        -52.8260   77.4350   -1.2000 N.3    23  VAL23      -0.1245
     33  CA       -52.0180   78.1300   -2.1980 C.3    23  VAL23       0.1561
     34  C        -52.9180   78.9860   -3.0980 C.2    23  VAL23       0.2260
     35  O        -52.4760   79.9850   -3.6650 O.2    23  VAL23      -0.2867
     36  CB       -51.1990   77.1170   -3.0330 C.3    23  VAL23       0.0252
     37  CG1      -50.5550   77.7990   -4.2400 C.3    23  VAL23       0.0019
     38  CG2      -50.1390   76.4730   -2.1460 C.3    23  VAL23       0.0019
     39  N        -55.3010   77.4180   -5.4970 N.3    25  VAL25      -0.1245
     40  CA       -55.6120   76.7370   -6.7480 C.3    25  VAL25       0.1561
     41  C        -57.1310   76.5840   -6.9310 C.2    25  VAL25       0.2260
     42  O        -57.8540   76.2580   -5.9830 O.2    25  VAL25      -0.2867
     43  CB       -54.9200   75.3560   -6.8110 C.3    25  VAL25       0.0252
     44  CG1      -55.1720   74.6920   -8.1570 C.3    25  VAL25       0.0019
     45  CG2      -53.4190   75.5070   -6.5650 C.3    25  VAL25       0.0019
     46  N        -58.7050   72.8970  -11.4850 N.3    29  THR29      -0.1218
     47  CA       -57.2990   72.5420  -11.4880 C.3    29  THR29       0.1862
     48  C        -56.9930   71.6000  -10.3260 C.2    29  THR29       0.2287
     49  O        -56.2320   70.6420  -10.4870 O.2    29  THR29      -0.2866
     50  CB       -56.4230   73.8060  -11.4380 C.3    29  THR29       0.1770
     51  OG1      -56.7900   74.6620  -12.5260 O.3    29  THR29      -0.2211
     52  CG2      -54.9450   73.4560  -11.5650 C.3    29  THR29       0.0375
     53  N        -58.1530   68.0970  -11.3390 N.3    32  VAL32      -0.1231
     54  CA       -57.2770   67.4630  -12.3270 C.3    32  VAL32       0.1692
     55  C        -55.9880   67.0060  -11.6370 C.2    32  VAL32       0.2591
     56  O        -55.5290   65.8770  -11.8330 O.2    32  VAL32      -0.2718
     57  CB       -56.9090   68.4230  -13.4800 C.3    32  VAL32       0.0266
     58  CG1      -55.9920   67.7260  -14.4820 C.3    32  VAL32       0.0020
     59  CG2      -58.1560   68.9160  -14.1650 C.3    32  VAL32       0.0020
     60  N        -55.4280   67.8810  -10.8070 N.am   33  ALA33      -0.1980
     61  CA       -54.1990   67.5910  -10.0780 C.3    33  ALA33       0.1597
     62  C        -54.3580   66.3660   -9.1940 C.2    33  ALA33       0.2287
     63  O        -53.4760   65.5130   -9.1390 O.2    33  ALA33      -0.2864
     64  CB       -53.7980   68.7930   -9.2330 C.3    33  ALA33       0.0319
     65  N        -54.2370   63.0700  -11.2570 N.3    36  ALA36      -0.1245
     66  CA       -52.9470   62.7220  -11.8250 C.3    36  ALA36       0.1562
     67  C        -52.0320   61.9680  -10.8570 C.2    36  ALA36       0.2260
     68  O        -51.9680   62.2750   -9.6670 O.2    36  ALA36      -0.2867
     69  CB       -52.2480   63.9750  -12.3460 C.3    36  ALA36       0.0290
     70  N        -48.5210   61.6160  -11.1700 N.3    38  PRO38      -0.2116
     71  CA       -47.3000   62.0030  -11.8760 C.3    38  PRO38       0.1372
     72  C        -46.0460   61.1860  -11.5940 C.2    38  PRO38       0.2244
     73  O        -45.9560   60.4600  -10.5980 O.2    38  PRO38      -0.2868
     74  CB       -47.1240   63.4620  -11.4650 C.3    38  PRO38       0.0268
     75  CG       -47.6260   63.4590  -10.0560 C.3    38  PRO38       0.0207
     76  CD       -48.8860   62.6320  -10.1600 C.3    38  PRO38       0.0892
     77  N        -41.9390   61.6570  -11.3840 N.3    40  MET40      -0.1245
     78  CA       -40.9490   62.7040  -11.2030 C.3    40  MET40       0.1570
     79  C        -39.6100   62.1670  -11.6840 C.2    40  MET40       0.2261
     80  O        -39.2130   61.0580  -11.3250 O.2    40  MET40      -0.2867
     81  CB       -40.8550   63.1160   -9.7380 C.3    40  MET40       0.0387
     82  CG       -39.9560   64.3220   -9.5170 C.3    40  MET40       0.0595
     83  SD       -39.8840   64.7470   -7.7560 S.3    40  MET40      -0.1393
     84  CE       -39.1710   63.3000   -7.1160 C.3    40  MET40       0.0692
     85  N        -41.7140   66.8230  -13.9500 N.3    53  SER53      -0.1217
     86  CA       -42.9150   66.1450  -13.4860 C.3    53  SER53       0.1889
     87  C        -43.7430   65.8570  -14.7250 C.2    53  SER53       0.2288
     88  O        -44.0140   66.7650  -15.5070 O.2    53  SER53      -0.2866
     89  CB       -43.6980   67.0480  -12.5300 C.3    53  SER53       0.2089
     90  OG       -44.8640   66.4040  -12.0490 O.3    53  SER53      -0.2183
     91  N        -47.2950   64.1010  -16.3630 N.3    55  SER55      -0.1217
     92  CA       -48.6380   63.6010  -16.1380 C.3    55  SER55       0.1889
     93  C        -49.3730   63.7550  -17.4680 C.2    55  SER55       0.2288
     94  O        -49.0050   64.5860  -18.2980 O.2    55  SER55      -0.2866
     95  CB       -49.3500   64.3580  -15.0120 C.3    55  SER55       0.2089
     96  OG       -49.9290   65.5620  -15.4740 O.3    55  SER55      -0.2183
     97  N        -52.0540   65.1670  -18.3290 N.3    57  PHE57      -0.1227
     98  CA       -52.5620   66.4930  -18.6440 C.3    57  PHE57       0.1736
     99  C        -51.5690   67.6580  -18.5650 C.2    57  PHE57       0.2595
    100  O        -51.8270   68.7230  -19.1200 O.2    57  PHE57      -0.2718
    101  CB       -53.8450   66.7770  -17.8600 C.3    57  PHE57       0.0547
    102  CG       -54.9910   65.8950  -18.2740 C.ar   57  PHE57      -0.0202
    103  CD1      -55.3090   65.7600  -19.6210 C.ar   57  PHE57      -0.0042
    104  CD2      -55.7490   65.2050  -17.3280 C.ar   57  PHE57      -0.0042
    105  CE1      -56.3600   64.9620  -20.0300 C.ar   57  PHE57      -0.0003
    106  CE2      -56.8130   64.3970  -17.7290 C.ar   57  PHE57      -0.0003
    107  CZ       -57.1190   64.2810  -19.0830 C.ar   57  PHE57      -0.0000
    108  N        -50.4310   67.4730  -17.8920 N.am   58  LYS58      -0.1980
    109  CA       -49.4350   68.5560  -17.7980 C.3    58  LYS58       0.1596
    110  C        -48.0560   68.0890  -17.3450 C.2    58  LYS58       0.2287
    111  O        -47.9240   67.3420  -16.3710 O.2    58  LYS58      -0.2864
    112  CB       -49.9230   69.6510  -16.8530 C.3    58  LYS58       0.0298
    113  CG       -49.2590   71.0050  -17.0700 C.3    58  LYS58       0.0038
    114  CD       -50.0750   72.0940  -16.4230 C.3    58  LYS58       0.0206
    115  CE       -49.8760   73.4120  -17.1390 C.3    58  LYS58       0.1093
    116  NZ       -51.1150   74.2220  -17.0890 N.3    58  LYS58      -0.1314
    117  N        -44.1380   69.4560  -16.2890 N.3    60  THR60      -0.1218
    118  CA       -43.4190   70.6420  -15.8490 C.3    60  THR60       0.1862
    119  C        -41.9380   70.3000  -15.7890 C.2    60  THR60       0.2287
    120  O        -41.5650   69.1310  -15.6590 O.2    60  THR60      -0.2866
    121  CB       -43.8670   71.1680  -14.4530 C.3    60  THR60       0.1770
    122  OG1      -43.6960   70.1390  -13.4710 O.3    60  THR60      -0.2211
    123  CG2      -45.3270   71.6300  -14.4840 C.3    60  THR60       0.0375
    124  N        -45.3260   77.5790  -12.3270 N.3    74  THR74      -0.1203
    125  CA       -45.8610   76.3670  -11.7300 C.3    74  THR74       0.1994
    126  C        -46.9680   75.7350  -12.5660 C.2    74  THR74       0.2618
    127  O        -47.5490   76.3750  -13.4450 O.2    74  THR74      -0.2717
    128  CB       -46.3770   76.6340  -10.3030 C.3    74  THR74       0.1784
    129  OG1      -47.5170   77.4970  -10.3630 O.3    74  THR74      -0.2211
    130  CG2      -45.3020   77.3180   -9.4720 C.3    74  THR74       0.0376
    131  N        -47.2710   74.4810  -12.2500 N.am   75  ALA75      -0.1965
    132  CA       -48.2990   73.7020  -12.9320 C.3    75  ALA75       0.1728
    133  C        -49.6510   74.4160  -12.9210 C.2    75  ALA75       0.2616
    134  O        -50.4130   74.3530  -13.8850 O.2    75  ALA75      -0.2715
    135  CB       -48.4190   72.3420  -12.2730 C.3    75  ALA75       0.0334
    136  N        -49.9400   75.0890  -11.8120 N.am   76  ASP76      -0.1971
    137  CA       -51.1890   75.8280  -11.6590 C.3    76  ASP76       0.1709
    138  C        -51.0740   77.2580  -12.2010 C.2    76  ASP76       0.2293
    139  O        -51.8920   78.1280  -11.8850 O.2    76  ASP76      -0.2864
    140  CB       -51.6330   75.8260  -10.1910 C.3    76  ASP76       0.1436
    141  CG       -50.6080   76.4400   -9.2680 C.2    76  ASP76       0.3671
    142  OD1      -49.4510   75.9650   -9.2350 O.co2  76  ASP76      -0.2456
    143  OD2      -50.9650   77.4040   -8.5670 O.co2  76  ASP76      -0.2456
    144  N        -48.6790   79.7820  -11.7190 N.3    78  ARG78      -0.1245
    145  CA       -48.2060   80.9100  -10.9300 C.3    78  ARG78       0.1563
    146  C        -46.8010   81.2130  -11.4550 C.2    78  ARG78       0.2260
    147  O        -46.0890   80.3020  -11.8790 O.2    78  ARG78      -0.2867
    148  CB       -48.1030   80.5450   -9.4470 C.3    78  ARG78       0.0307
    149  CG       -49.3900   80.6120   -8.6430 C.3    78  ARG78       0.0489
    150  CD       -49.1440   80.0700   -7.2260 C.3    78  ARG78       0.2205
    151  NE       -48.8540   78.6380   -7.2550 N.pl3  78  ARG78      -0.0865
    152  CZ       -47.8770   78.0310   -6.5860 C.cat  78  ARG78       0.5346
    153  NH1      -47.0430   78.7090   -5.7990 N.pl3  78  ARG78       0.1354
    154  NH2      -47.7370   76.7190   -6.7190 N.pl3  78  ARG78       0.1354
    155  N        -40.6180   78.9790   -2.7840 N.3    95  GLN95      -0.1245
    156  CA       -41.2210   79.6940   -3.9030 C.3    95  GLN95       0.1566
    157  C        -41.8310   80.9530   -3.3250 C.2    95  GLN95       0.2260
    158  O        -42.5190   80.8910   -2.3140 O.2    95  GLN95      -0.2867
    159  CB       -42.3430   78.8830   -4.5300 C.3    95  GLN95       0.0367
    160  CG       -41.9350   77.5810   -5.1850 C.3    95  GLN95       0.0905
    161  CD       -43.1220   76.9130   -5.8550 C.2    95  GLN95       0.2608
    162  OE1      -44.2480   77.0320   -5.3870 O.2    95  GLN95      -0.2717
    163  NE2      -42.8790   76.2190   -6.9530 N.am   95  GLN95      -0.0878
    164  N        -41.1460   73.6230   -0.2390 N.3   104  ILE104     -0.1245
    165  CA       -41.2940   72.2750   -0.7730 C.3   104  ILE104      0.1561
    166  C        -39.9830   71.5650   -0.4880 C.2   104  ILE104      0.2260
    167  O        -38.9330   71.9950   -0.9660 O.2   104  ILE104     -0.2867
    168  CB       -41.5370   72.3000   -2.3060 C.3   104  ILE104      0.0252
    169  CG1      -42.8130   73.0850   -2.6240 C.3   104  ILE104      0.0019
    170  CG2      -41.6360   70.8800   -2.8570 C.3   104  ILE104      0.0019
    171  CD1      -43.0370   73.3280   -4.0930 C.3   104  ILE104      0.0001
    172  N        -37.8110   67.9860   -0.5980 N.3   106  ARG106     -0.1245
    173  CA       -37.7250   66.6840   -1.2390 C.3   106  ARG106      0.1563
    174  C        -36.5980   65.9800   -0.5120 C.2   106  ARG106      0.2260
    175  O        -35.4730   66.4880   -0.4390 O.2   106  ARG106     -0.2867
    176  CB       -37.4170   66.8320   -2.7220 C.3   106  ARG106      0.0307
    177  CG       -38.5110   67.5640   -3.4940 C.3   106  ARG106      0.0489
    178  CD       -38.1300   67.7500   -4.9480 C.3   106  ARG106      0.2205
    179  NE       -39.1850   68.3780   -5.7360 N.pl3 106  ARG106     -0.0865
    180  CZ       -39.3310   69.6910   -5.8910 C.cat 106  ARG106      0.5346
    181  NH1      -38.4850   70.5320   -5.3190 N.pl3 106  ARG106      0.1354
    182  NH2      -40.3190   70.1680   -6.6330 N.pl3 106  ARG106      0.1354
    183  N        -41.9050   64.0930   -0.6390 N.3   115  VAL115     -0.1245
    184  CA       -42.0310   65.5160   -0.9350 C.3   115  VAL115      0.1561
    185  C        -43.0120   66.1000    0.0770 C.2   115  VAL115      0.2260
    186  O        -44.1310   65.6020    0.2240 O.2   115  VAL115     -0.2867
    187  CB       -42.5820   65.7710   -2.3630 C.3   115  VAL115      0.0252
    188  CG1      -42.5610   67.2630   -2.6780 C.3   115  VAL115      0.0019
    189  CG2      -41.7760   65.0110   -3.3900 C.3   115  VAL115      0.0019
    190  N        -44.8620   69.6330    1.2810 N.3   117  CYS117     -0.1235
    191  CA       -45.1950   71.0040    0.9130 C.3   117  CYS117      0.1677
    192  C        -45.9020   71.6890    2.0780 C.2   117  CYS117      0.2270
    193  O        -46.8240   71.1260    2.6730 O.2   117  CYS117     -0.2867
    194  CB       -46.1060   71.0030   -0.3030 C.3   117  CYS117      0.0956
    195  SG       -45.5540   69.8870   -1.6270 S.3   117  CYS117     -0.0801
    196  N        -46.3020   63.7440    0.0570 N.3   126  ARG126     -0.1245
    197  CA       -46.4570   62.8930   -1.1190 C.3   126  ARG126      0.1563
    198  C        -45.2790   61.9300   -1.1290 C.2   126  ARG126      0.2260
    199  O        -44.1310   62.3570   -1.0420 O.2   126  ARG126     -0.2867
    200  CB       -46.4260   63.7530   -2.3840 C.3   126  ARG126      0.0307
    201  CG       -47.2750   65.0040   -2.2930 C.3   126  ARG126      0.0489
    202  CD       -48.5570   64.8420   -3.0450 C.3   126  ARG126      0.2205
    203  NE       -48.3440   64.9210   -4.4880 N.pl3 126  ARG126     -0.0865
    204  CZ       -49.2870   64.6740   -5.3940 C.cat 126  ARG126      0.5346
    205  NH1      -50.5100   64.3280   -5.0090 N.pl3 126  ARG126      0.1354
    206  NH2      -49.0090   64.7920   -6.6850 N.pl3 126  ARG126      0.1354
    207  N        -43.0690   58.9320   -3.0480 N.3   128  TYR128     -0.1241
    208  CA       -42.7180   58.3870   -4.3480 C.3   128  TYR128      0.1605
    209  C        -41.7970   57.1890   -4.1820 C.2   128  TYR128      0.2264
    210  O        -41.0180   57.1310   -3.2380 O.2   128  TYR128     -0.2867
    211  CB       -41.9630   59.4320   -5.1840 C.3   128  TYR128      0.0534
    212  CG       -42.8170   60.5300   -5.7780 C.ar  128  TYR128     -0.0201
    213  CD1      -43.2510   61.6080   -5.0030 C.ar  128  TYR128     -0.0009
    214  CD2      -43.1910   60.4870   -7.1210 C.ar  128  TYR128     -0.0009
    215  CE1      -44.0360   62.6160   -5.5550 C.ar  128  TYR128      0.0417
    216  CE2      -43.9700   61.4850   -7.6790 C.ar  128  TYR128      0.0417
    217  CZ       -44.3960   62.5440   -6.8940 C.ar  128  TYR128      0.1957
    218  OH       -45.2020   63.5110   -7.4420 O.3   128  TYR128     -0.2866
@<TRIPOS>BOND
     1   105   103   ar
     2   105   107   ar
     3   103   102   ar
     4   100    99    2
     5   107   106   ar
     6    98    99    1
     7    98    97    1
     8    98   101    1
     9    99   108   am
    10    94    93    2
    11   102   101    1
    12   102   104   ar
    13   108   109    1
    14   109   110    1
    15   109   112    1
    16   106   104   ar
    17    93    92    1
    18   110   111    2
    19   115   116    1
    20   115   114    1
    21   113   112    1
    22   113   114    1
    23    91    92    1
    24   117   118    1
    25    92    95    1
    26   118   119    1
    27   118   121    1
    28   119   120    2
    29    88    87    2
    30    96    95    1
    31    87    86    1
    32   123   121    1
    33    58    57    1
    34   121   122    1
    35    59    57    1
    36    85    86    1
    37   134   133    2
    38    86    89    1
    39    57    54    1
    40   127   126    2
    41   132   133    1
    42   132   135    1
    43   132   131    1
    44   133   136   am
    45   126   131   am
    46   126   125    1
    47    89    90    1
    48    51    50    1
    49    69    66    1
    50    54    55    1
    51    54    53    1
    52   124   125    1
    53   138   139    2
    54   138   137    1
    55   147   146    2
    56    71    72    1
    57    71    74    1
    58    71    70    1
    59    56    55    2
    60    66    65    1
    61    66    67    1
    62   136   137    1
    63   125   128    1
    64   144   145    1
    65    79    80    2
    66    79    78    1
    67   137   140    1
    68    55    60   am
    69    72    73    2
    70    52    50    1
    71    47    46    1
    72    47    50    1
    73    47    48    1
    74    74    75    1
    75   146   145    1
    76    77    78    1
    77    78    81    1
    78    70    76    1
    79   145   148    1
    80    67    68    2
    81    60    61    1
    82    49    48    2
    83   129   128    1
    84   128   130    1
    85   140   141    1
    86    76    75    1
    87    61    64    1
    88    61    62    1
    89    81    82    1
    90    82    83    1
    91   148   149    1
    92   141   142   ar
    93   141   143   ar
    94    62    63    2
    95   149   150    1
    96    44    43    1
    97    83    84    1
    98   216   214   ar
    99   216   217   ar
   100   218   217    1
   101   151   150    1
   102   151   152    2
   103   214   212   ar
   104   163   161   am
   105    41    40    1
   106    41    42    2
   107   217   215   ar
   108    43    40    1
   109    43    45    1
   110    40    39    1
   111   154   152    1
   112   206   204    1
   113   182   180    1
   114   152   153    1
   115    30    31    1
   116    30    29    1
   117   180   179    2
   118   180   181    1
   119   161   162    2
   120   161   160    1
   121    10    11   ar
   122    10     8   ar
   123   212   211    1
   124   212   213   ar
   125   179   178    1
   126   215   213   ar
   127    11     9   ar
   128   204   205    1
   129   204   203    2
   130   160   159    1
   131   211   208    1
   132   178   177    1
   133    29    28    1
   134     8     6   ar
   135   159   156    1
   136   203   202    1
   137   208   209    1
   138   208   207    1
   139     9     7   ar
   140    37    36    1
   141    28    25    1
   142   209   210    2
   143   171   169    1
   144   156   157    1
   145   156   155    1
   146    35    34    2
   147   177   176    1
   148     6     7   ar
   149     6     5    1
   150   189   187    1
   151   157   158    2
   152    27    26    2
   153    34    33    1
   154    25    26    1
   155    25    24    1
   156   202   201    1
   157    36    33    1
   158    36    38    1
   159   170   168    1
   160   176   173    1
   161   188   187    1
   162   169   168    1
   163   200   201    1
   164   200   197    1
   165   187   184    1
   166    21    19   ar
   167    21    22   ar
   168   168   165    1
   169     5     2    1
   170    33    32    1
   171    23    22    1
   172     4     3    2
   173    24    14   am
   174    19    17   ar
   175   195   194    1
   176     3     2    1
   177    22    20   ar
   178   173   172    1
   179   173   174    1
   180   198   197    1
   181   198   199    2
   182   197   196    1
   183     2     1    1
   184   167   166    2
   185   184   183    1
   186   184   185    1
   187    14    15    2
   188    14    13    1
   189   165   166    1
   190   165   164    1
   191   174   175    2
   192    17    16    1
   193    17    18   ar
   194   194   191    1
   195    20    18   ar
   196   185   186    2
   197    16    13    1
   198    13    12    1
   199   191   190    1
   200   191   192    1
   201   192   193    2
