@<TRIPOS>MOLECULE
tmp/1ae8B02.pdb
 187 185 0 0 0
SMALL
GASTEIGER

@<TRIPOS>ATOM
      1  N         22.9170   -7.0690   18.6340 N.3    43  HIS43      -0.1241
      2  CA        22.7540   -8.4380   18.1950 C.3    43  HIS43       0.1621
      3  C         21.9820   -8.5710   16.8540 C.2    43  HIS43       0.2264
      4  O         22.0460   -9.6140   16.1950 O.2    43  HIS43      -0.2867
      5  CB        22.2050   -9.3650   19.2870 C.3    43  HIS43       0.0745
      6  CG        20.7090   -9.2620   19.4230 C.ar   43  HIS43       0.0817
      7  ND1       20.1290   -8.4480   20.3740 N.ar   43  HIS43      -0.2268
      8  CD2       19.6960   -9.8780   18.7130 C.ar   43  HIS43       0.1154
      9  CE1       18.8010   -8.5850   20.2690 C.ar   43  HIS43       0.1986
     10  NE2       18.5040   -9.4160   19.2690 N.ar   43  HIS43      -0.2212
     11  N         26.2800  -11.2280   15.6440 N.3    47  TYR47      -0.1241
     12  CA        26.0450  -12.3600   16.5260 C.3    47  TYR47       0.1605
     13  C         26.7570  -13.6240   15.9910 C.2    47  TYR47       0.2264
     14  O         26.1650  -14.5100   15.3530 O.2    47  TYR47      -0.2867
     15  CB        24.5390  -12.5560   16.7580 C.3    47  TYR47       0.0534
     16  CG        24.2990  -13.4310   17.9060 C.ar   47  TYR47      -0.0201
     17  CD1       24.7660  -13.0430   19.1610 C.ar   47  TYR47      -0.0009
     18  CD2       23.8040  -14.7200   17.7310 C.ar   47  TYR47      -0.0009
     19  CE1       24.6080  -13.8710   20.2680 C.ar   47  TYR47       0.0417
     20  CE2       23.6400  -15.5690   18.8270 C.ar   47  TYR47       0.0417
     21  CZ        24.0440  -15.1370   20.0950 C.ar   47  TYR47       0.1957
     22  OH        23.9120  -15.9700   21.1900 O.3    47  TYR47      -0.2866
     23  N         25.9250  -17.3690   15.5600 N.3    50  TRP50      -0.1241
     24  CA        24.9380  -17.7410   14.5200 C.3    50  TRP50       0.1605
     25  C         25.4180  -17.3440   13.1880 C.2    50  TRP50       0.2264
     26  O         24.6450  -17.2500   12.2150 O.2    50  TRP50      -0.2867
     27  CB        23.5740  -17.0780   14.7190 C.3    50  TRP50       0.0550
     28  CG        22.8010  -17.5200   15.8980 C.ar   50  TRP50       0.0003
     29  CD1       23.0570  -18.5920   16.6720 C.ar   50  TRP50       0.0946
     30  CD2       21.6120  -16.9200   16.4190 C.ar   50  TRP50       0.0152
     31  NE1       22.0920  -18.7380   17.6150 N.ar   50  TRP50      -0.2442
     32  CE2       21.2020  -17.6940   17.5030 C.ar   50  TRP50       0.0810
     33  CE3       20.8390  -15.8360   16.0090 C.ar   50  TRP50       0.0012
     34  CZ2       20.0480  -17.3880   18.1930 C.ar   50  TRP50       0.0191
     35  CZ3       19.7140  -15.5210   16.7020 C.ar   50  TRP50       0.0001
     36  CH2       19.3310  -16.3010   17.7950 C.ar   50  TRP50       0.0015
     37  N         28.5990  -10.3620   23.3560 N.3    92  TRP92      -0.1241
     38  CA        27.8880  -11.4090   22.6640 C.3    92  TRP92       0.1605
     39  C         28.3570  -12.7650   23.0810 C.2    92  TRP92       0.2264
     40  O         27.7150  -13.7270   22.8040 O.2    92  TRP92      -0.2867
     41  CB        27.9840  -11.2930   21.1350 C.3    92  TRP92       0.0550
     42  CG        29.4130  -11.2490   20.6920 C.ar   92  TRP92       0.0003
     43  CD1       30.1480  -10.1300   20.4630 C.ar   92  TRP92       0.0946
     44  CD2       30.3040  -12.3750   20.4620 C.ar   92  TRP92       0.0152
     45  NE1       31.4190  -10.4590   20.0450 N.ar   92  TRP92      -0.2442
     46  CE2       31.5450  -11.8320   20.0570 C.ar   92  TRP92       0.0810
     47  CE3       30.1420  -13.8090   20.4710 C.ar   92  TRP92       0.0012
     48  CZ2       32.6380  -12.6740   19.7210 C.ar   92  TRP92       0.0191
     49  CZ3       31.1900  -14.6210   20.0900 C.ar   92  TRP92       0.0001
     50  CH2       32.4340  -14.0690   19.7320 C.ar   92  TRP92       0.0015
     51  N         28.7070  -13.8590   26.2900 N.3    94  GLU94      -0.1231
     52  CA        28.0190  -14.3350   27.4540 C.3    94  GLU94       0.1699
     53  C         26.5560  -13.9610   27.5660 C.2    94  GLU94       0.2592
     54  O         25.6910  -14.8170   27.4960 O.2    94  GLU94      -0.2718
     55  CB        28.7790  -13.9550   28.7270 C.3    94  GLU94       0.0402
     56  CG        28.1850  -14.6400   29.9890 C.3    94  GLU94       0.1161
     57  CD        28.4800  -13.9020   31.2880 C.2    94  GLU94       0.3649
     58  OE1       29.4840  -13.1080   31.3270 O.co2  94  GLU94      -0.2457
     59  OE2       27.7280  -14.1290   32.2840 O.co2  94  GLU94      -0.2457
     60  N         26.2530  -12.6920   27.8050 N.am   95  ASN95      -0.1960
     61  CA        24.8830  -12.3650   28.1540 C.3    95  ASN95       0.1819
     62  C         24.2300  -11.1920   27.4100 C.2    95  ASN95       0.2621
     63  O         23.1740  -10.7170   27.8560 O.2    95  ASN95      -0.2715
     64  CB        24.8360  -12.1070   29.6850 C.3    95  ASN95       0.1195
     65  CG        25.8460  -11.0370   30.0350 C.2    95  ASN95       0.2630
     66  OD1       26.5260  -10.5110   29.1230 O.2    95  ASN95      -0.2716
     67  ND2       25.9440  -10.6920   31.3100 N.am   95  ASN95      -0.0877
     68  N         24.8150  -10.7630   26.2850 N.am   96  LEU96      -0.1977
     69  CA        24.2590   -9.6270   25.5130 C.3    96  LEU96       0.1596
     70  C         24.3640   -8.3110   26.2850 C.2    96  LEU96       0.2287
     71  O         23.6120   -7.3780   26.0580 O.2    96  LEU96      -0.2864
     72  CB        22.7580   -9.8300   25.0110 C.3    96  LEU96       0.0297
     73  CG        22.6280  -10.9370   23.9820 C.3    96  LEU96       0.0022
     74  CD1       21.3240  -10.8260   23.1960 C.3    96  LEU96       0.0001
     75  CD2       23.8210  -10.9490   23.0450 C.3    96  LEU96       0.0001
     76  N          5.1430  -17.9270   19.8890 N.3   146  GLU146     -0.1245
     77  CA         6.4950  -18.5780   19.9540 C.3   146  GLU146      0.1567
     78  C          6.7310  -19.5950   18.8110 C.2   146  GLU146      0.2260
     79  O          7.8170  -19.6660   18.2180 O.2   146  GLU146     -0.2867
     80  CB         6.8000  -19.1950   21.3430 C.3   146  GLU146      0.0388
     81  CG         8.2910  -19.4760   21.5600 C.3   146  GLU146      0.1160
     82  CD         8.5930  -20.0140   22.9550 C.2   146  GLU146      0.3649
     83  OE1        7.8720  -19.6150   23.9420 O.co2 146  GLU146     -0.2457
     84  OE2        9.6070  -20.7610   23.0870 O.co2 146  GLU146     -0.2457
     85  N         20.6690  -16.7400   33.3520 N.3   173  ILE173     -0.1245
     86  CA        21.6200  -15.8250   32.7030 C.3   173  ILE173      0.1561
     87  C         22.0590  -14.7350   33.6720 C.2   173  ILE173      0.2260
     88  O         21.2660  -14.2330   34.4740 O.2   173  ILE173     -0.2867
     89  CB        21.0420  -15.2130   31.3970 C.3   173  ILE173      0.0252
     90  CG1       20.7810  -16.3280   30.4040 C.3   173  ILE173      0.0019
     91  CG2       22.0030  -14.1960   30.7650 C.3   173  ILE173      0.0019
     92  CD1       19.9130  -15.8950   29.2460 C.3   173  ILE173      0.0001
     93  N          4.2710   -9.9400   25.3390 N.3   193  ASP193     -0.1225
     94  CA         5.7040   -9.9270   25.2500 C.3   193  ASP193      0.1805
     95  C          6.1380   -9.6120   23.8060 C.2   193  ASP193      0.2598
     96  O          5.3260   -9.6480   22.8620 O.2   193  ASP193     -0.2718
     97  CB         6.2290  -11.3520   25.6820 C.3   193  ASP193      0.1424
     98  CG         7.7340  -11.4500   25.8950 C.2   193  ASP193      0.3668
     99  OD1        8.3910  -10.3970   25.9830 O.co2 193  ASP193     -0.2456
    100  OD2        8.2610  -12.6020   26.0030 O.co2 193  ASP193     -0.2456
    101  N          7.4380   -9.3030   23.6480 N.am  194  ALA194     -0.1966
    102  CA         8.0120   -9.1760   22.3800 C.3   194  ALA194      0.1728
    103  C          8.3150  -10.5980   21.9040 C.2   194  ALA194      0.2616
    104  O          8.2800  -11.5480   22.6800 O.2   194  ALA194     -0.2715
    105  CB         9.3160   -8.3750   22.4530 C.3   194  ALA194      0.0334
    106  N          8.6230  -10.7410   20.6650 N.am  195  CYS195     -0.1954
    107  CA         8.9690  -12.0540   20.1110 C.3   195  CYS195      0.1843
    108  C          9.9080  -11.9140   18.8900 C.2   195  CYS195      0.2625
    109  O         10.3290  -10.8060   18.5030 O.2   195  CYS195     -0.2714
    110  CB         7.7060  -12.8590   19.7360 C.3   195  CYS195      0.0997
    111  SG         7.9300  -14.6880   19.6810 S.3   195  CYS195     -0.0797
    112  N         10.2110  -13.0420   18.2600 N.am  196  GLU196     -0.1977
    113  CA        11.0280  -13.0130   17.0660 C.3   196  GLU196      0.1602
    114  C         10.5870  -11.9110   16.0790 C.2   196  GLU196      0.2287
    115  O          9.4030  -11.7720   15.7920 O.2   196  GLU196     -0.2864
    116  CB        10.9970  -14.3750   16.3670 C.3   196  GLU196      0.0415
    117  CG        12.3880  -15.0080   16.3120 C.3   196  GLU196      0.1163
    118  CD        13.3620  -14.1980   15.4970 C.2   196  GLU196      0.3649
    119  OE1       13.6090  -12.9820   15.8600 O.co2 196  GLU196     -0.2457
    120  OE2       13.8550  -14.7630   14.4630 O.co2 196  GLU196     -0.2457
    121  N         12.9980   -7.7870   18.0560 N.3   199  SER199     -0.1217
    122  CA        14.3400   -7.3980   18.5730 C.3   199  SER199      0.1889
    123  C         14.8030   -6.0520   18.0460 C.2   199  SER199      0.2288
    124  O         14.5800   -5.7160   16.8990 O.2   199  SER199     -0.2866
    125  CB        15.4220   -8.4800   18.2280 C.3   199  SER199      0.2089
    126  OG        15.8930   -9.1280   19.3800 O.3   199  SER199     -0.2183
    127  N         14.5150   -3.6600   22.8450 N.3   219  VAL219     -0.1231
    128  CA        14.2080   -5.1260   22.9240 C.3   219  VAL219      0.1692
    129  C         15.4860   -5.9470   22.7170 C.2   219  VAL219      0.2593
    130  O         16.1200   -5.9030   21.6460 O.2   219  VAL219     -0.2718
    131  CB        13.0790   -5.5960   21.9330 C.3   219  VAL219      0.0266
    132  CG1       12.8010   -7.1140   22.1280 C.3   219  VAL219      0.0020
    133  CG2       11.7760   -4.8050   22.1080 C.3   219  VAL219      0.0020
    134  N         15.9300   -6.6700   23.7770 N.am  220  SER220     -0.1938
    135  CA        17.2130   -7.3660   23.7170 C.3   220  SER220      0.2055
    136  C         17.1380   -8.8800   23.7080 C.2   220  SER220      0.2643
    137  O         17.6360   -9.5160   22.7970 O.2   220  SER220     -0.2714
    138  CB        18.1640   -6.8760   24.8330 C.3   220  SER220      0.2130
    139  OG        19.4390   -7.4780   24.7140 O.3   220  SER220     -0.2179
    140  N         16.6060   -9.4490   24.7880 N.am  221  TRP221     -0.1959
    141  CA        16.5050  -10.8710   24.8740 C.3   221  TRP221      0.1771
    142  C         15.3980  -11.3510   25.7720 C.2   221  TRP221      0.2620
    143  O         14.8400  -10.6040   26.6030 O.2   221  TRP221     -0.2715
    144  CB        17.8670  -11.5360   25.2090 C.3   221  TRP221      0.0590
    145  CG        18.4080  -11.1250   26.5630 C.ar  221  TRP221      0.0006
    146  CD1       19.2010  -10.0670   26.8420 C.ar  221  TRP221      0.0946
    147  CD2       18.2070  -11.7820   27.8000 C.ar  221  TRP221      0.0152
    148  NE1       19.5460  -10.0420   28.1700 N.ar  221  TRP221     -0.2442
    149  CE2       18.9600  -11.0920   28.7750 C.ar  221  TRP221      0.0810
    150  CE3       17.5250  -12.9250   28.1530 C.ar  221  TRP221      0.0012
    151  CZ2       18.9730  -11.4980   30.1060 C.ar  221  TRP221      0.0191
    152  CZ3       17.5280  -13.3310   29.4650 C.ar  221  TRP221      0.0001
    153  CH2       18.2600  -12.6340   30.4360 C.ar  221  TRP221      0.0015
    154  N         15.0890  -12.6440   25.5980 N.am  222  GLY222     -0.1940
    155  CA        14.0690  -13.3100   26.3720 C.3   222  GLY222      0.2014
    156  C         14.0180  -14.7920   25.9810 C.2   222  GLY222      0.2639
    157  O         14.2570  -15.1510   24.8320 O.2   222  GLY222     -0.2714
    158  N         13.6520  -15.6310   26.9470 N.am  223  GLU223     -0.1963
    159  CA        13.5790  -17.0930   26.7760 C.3   223  GLU223      0.1733
    160  C         12.2030  -17.4880   26.3330 C.2   223  GLU223      0.2617
    161  O         11.2530  -17.5550   27.1470 O.2   223  GLU223     -0.2715
    162  CB        13.9990  -17.7800   28.1030 C.3   223  GLU223      0.0429
    163  CG        15.2810  -17.0970   28.6890 C.3   223  GLU223      0.1163
    164  CD        15.6210  -17.4160   30.1370 C.2   223  GLU223      0.3649
    165  OE1       15.1970  -16.6460   31.0690 O.co2 223  GLU223     -0.2457
    166  OE2       16.4970  -18.2590   30.3210 O.co2 223  GLU223     -0.2457
    167  N         12.0860  -17.6590   25.0040 N.am  224  GLY224     -0.1940
    168  CA        10.7910  -17.9250   24.3830 C.3   224  GLY224      0.2014
    169  C         10.0020  -16.6160   24.3450 C.2   224  GLY224      0.2639
    170  O         10.5810  -15.5370   24.5770 O.2   224  GLY224     -0.2714
    171  N          8.6940  -16.7140   24.1170 N.am  225  CYS225     -0.1967
    172  CA         7.8370  -15.5460   24.0870 C.3   225  CYS225      0.1712
    173  C          6.6240  -15.7130   24.9480 C.2   225  CYS225      0.2296
    174  O          5.8550  -16.6440   24.7730 O.2   225  CYS225     -0.2864
    175  CB         7.4040  -15.1460   22.6620 C.3   225  CYS225      0.0983
    176  SG         8.7390  -15.2340   21.5000 S.3   225  CYS225     -0.0798
    177  N          6.2540  -16.5380   27.9870 N.3   227  ARG227     -0.1245
    178  CA         6.2180  -17.7010   28.8640 C.3   227  ARG227      0.1563
    179  C          5.8620  -17.3070   30.3030 C.2   227  ARG227      0.2260
    180  O          6.2860  -16.2630   30.8140 O.2   227  ARG227     -0.2867
    181  CB         7.5210  -18.5130   28.8270 C.3   227  ARG227      0.0307
    182  CG         7.9590  -18.9580   27.4400 C.3   227  ARG227      0.0489
    183  CD         8.4770  -20.4000   27.4690 C.3   227  ARG227      0.2205
    184  NE         9.2760  -20.8250   26.3050 N.pl3 227  ARG227     -0.0865
    185  CZ        10.4600  -21.4680   26.3890 C.cat 227  ARG227      0.5346
    186  NH1       11.0190  -21.7540   27.5620 N.pl3 227  ARG227      0.1354
    187  NH2       11.0870  -21.8110   25.2720 N.pl3 227  ARG227      0.1354
@<TRIPOS>BOND
     1    26    25    2
     2    25    24    1
     3   120   118   ar
     4    24    27    1
     5    24    23    1
     6    27    28    1
     7    14    13    2
     8   118   119   ar
     9   118   117    1
    10    11    12    1
    11   115   114    2
    12    28    30   ar
    13    28    29   ar
    14    13    12    1
    15    33    30   ar
    16    33    35   ar
    17   114   113    1
    18     4     3    2
    19   117   116    1
    20   116   113    1
    21    30    32   ar
    22    12    15    1
    23    29    31   ar
    24    35    36   ar
    25    15    16    1
    26     3     2    1
    27   124   123    2
    28   113   112    1
    29    32    31   ar
    30    32    34   ar
    31    18    16   ar
    32    18    20   ar
    33    36    34   ar
    34    16    17   ar
    35   123   122    1
    36   121   122    1
    37     2     1    1
    38     2     5    1
    39    79    78    2
    40   125   122    1
    41   125   126    1
    42   112   108   am
    43   109   108    2
    44     8    10   ar
    45     8     6   ar
    46    78    77    1
    47    20    21   ar
    48   108   107    1
    49    17    19   ar
    50    10     9   ar
    51     5     6    1
    52     6     7   ar
    53   111   110    1
    54   111   176    1
    55    48    50   ar
    56    48    46   ar
    57    50    49   ar
    58   110   107    1
    59    76    77    1
    60    77    80    1
    61    45    46   ar
    62    45    43   ar
    63    46    44   ar
    64    49    47   ar
    65    21    19   ar
    66    21    22    1
    67   107   106    1
    68     9     7   ar
    69    44    47   ar
    70    44    42   ar
    71    43    42   ar
    72   106   103   am
    73    42    41    1
    74    41    38    1
    75    80    81    1
    76   176   175    1
    77    81    82    1
    78   130   129    2
    79   103   102    1
    80   103   104    2
    81   131   133    1
    82   131   132    1
    83   131   128    1
    84   102   105    1
    85   102   101    1
    86   175   172    1
    87    38    39    1
    88    38    37    1
    89   129   128    1
    90   129   134   am
    91   137   136    2
    92    40    39    2
    93   127   128    1
    94    96    95    2
    95    82    84   ar
    96    82    83   ar
    97    75    73    1
    98    74    73    1
    99   101    95   am
   100   136   135    1
   101   136   140   am
   102   135   134    1
   103   135   138    1
   104    95    94    1
   105    73    72    1
   106   172   171    1
   107   172   173    1
   108   171   169   am
   109   169   168    1
   110   169   170    2
   111   168   167    1
   112   139   138    1
   113   174   173    2
   114   140   141    1
   115   157   156    2
   116   141   144    1
   117   141   142    1
   118   167   160   am
   119    72    69    1
   120   144   145    1
   121    94    93    1
   122    94    97    1
   123   187   185    1
   124    69    70    1
   125    69    68    1
   126   154   142   am
   127   154   155    1
   128    97    98    1
   129   142   143    2
   130    98    99   ar
   131    98   100   ar
   132   156   155    1
   133   156   158   am
   134    71    70    2
   135    68    62   am
   136    51    52    1
   137   184   185    2
   138   184   183    1
   139   160   159    1
   140   160   161    2
   141   185   186    1
   142   145   146   ar
   143   145   147   ar
   144   159   158    1
   145   159   162    1
   146   146   148   ar
   147    62    63    2
   148    62    61    1
   149   182   183    1
   150   182   181    1
   151    52    53    1
   152    52    55    1
   153    54    53    2
   154    53    60   am
   155   147   150   ar
   156   147   149   ar
   157    60    61    1
   158   177   178    1
   159   162   163    1
   160   150   152   ar
   161    61    64    1
   162   148   149   ar
   163   163   164    1
   164    55    56    1
   165   149   151   ar
   166   181   178    1
   167   178   179    1
   168    66    65    2
   169    92    90    1
   170   152   153   ar
   171    64    65    1
   172    56    57    1
   173    65    67   am
   174   151   153   ar
   175   164   166   ar
   176   164   165   ar
   177   179   180    2
   178    90    89    1
   179    91    89    1
   180    57    58   ar
   181    57    59   ar
   182    89    86    1
   183    86    85    1
   184    86    87    1
   185    87    88    2
