@<TRIPOS>MOLECULE
tmp/1ae8B00.pdb
 157 149 0 0 0
SMALL
GASTEIGER

@<TRIPOS>ATOM
      1  N         11.8690   -0.0570   10.5060 N.3    17  MET17      -0.1245
      2  CA        12.0290   -1.4460   10.0880 C.3    17  MET17       0.1570
      3  C         13.4110   -1.6720    9.4610 C.2    17  MET17       0.2261
      4  O         13.8560   -0.9790    8.5550 O.2    17  MET17      -0.2867
      5  CB        10.9140   -1.9510    9.1350 C.3    17  MET17       0.0387
      6  CG        11.1420   -3.3720    8.6580 C.3    17  MET17       0.0595
      7  SD         9.9600   -3.8770    7.3170 S.3    17  MET17      -0.1393
      8  CE         8.3790   -3.9790    8.2060 C.3    17  MET17       0.0692
      9  N         15.5640   -3.8910    7.2860 N.3    19  PHE19      -0.1241
     10  CA        15.1980   -4.7050    6.1840 C.3    19  PHE19       0.1605
     11  C         16.3510   -5.2220    5.3550 C.2    19  PHE19       0.2264
     12  O         17.1890   -4.4750    4.8160 O.2    19  PHE19      -0.2867
     13  CB        14.1060   -3.9650    5.3420 C.3    19  PHE19       0.0534
     14  CG        13.3560   -4.8260    4.3570 C.ar   19  PHE19      -0.0203
     15  CD1       12.3520   -5.7130    4.7550 C.ar   19  PHE19      -0.0042
     16  CD2       13.6670   -4.7340    3.0020 C.ar   19  PHE19      -0.0042
     17  CE1       11.6880   -6.5120    3.8270 C.ar   19  PHE19      -0.0003
     18  CE2       13.0180   -5.5310    2.0570 C.ar   19  PHE19      -0.0003
     19  CZ        12.0260   -6.4200    2.4760 C.ar   19  PHE19      -0.0000
     20  N         18.1160   -6.7200    2.3210 N.3    21  LYS21      -0.1245
     21  CA        18.0890   -6.5170    0.8960 C.3    21  LYS21       0.1561
     22  C         17.8550   -7.8030    0.1130 C.2    21  LYS21       0.2260
     23  O         17.1620   -7.8160   -0.8900 O.2    21  LYS21      -0.2867
     24  CB        19.3980   -5.9550    0.4460 C.3    21  LYS21       0.0271
     25  CG        19.4300   -4.4680    0.3560 C.3    21  LYS21       0.0035
     26  CD        20.7310   -4.0110   -0.2970 C.3    21  LYS21       0.0206
     27  CE        21.0040   -2.5160   -0.1630 C.3    21  LYS21       0.1093
     28  NZ        22.4270   -2.1400   -0.3250 N.3    21  LYS21      -0.1314
     29  N         14.9130  -10.6490    0.7150 N.3    24  GLN24      -0.1231
     30  CA        14.1400   -9.5610    1.2830 C.3    24  GLN24       0.1698
     31  C         13.3910  -10.0460    2.4880 C.2    24  GLN24       0.2592
     32  O         12.4490  -10.8280    2.3510 O.2    24  GLN24      -0.2718
     33  CB        13.1270   -9.0330    0.2780 C.3    24  GLN24       0.0381
     34  CG        13.7560   -8.2190   -0.8760 C.3    24  GLN24       0.0905
     35  CD        12.7230   -7.3570   -1.5920 C.2    24  GLN24       0.2608
     36  OE1       11.5010   -7.4990   -1.3780 O.2    24  GLN24      -0.2717
     37  NE2       13.2050   -6.3720   -2.3530 N.am   24  GLN24      -0.0878
     38  N         13.7920   -9.5800    3.6640 N.am   25  GLU25      -0.1966
     39  CA        13.1290  -10.0020    4.8650 C.3    25  GLU25       0.1733
     40  C         13.3010   -9.0020    5.9910 C.2    25  GLU25       0.2616
     41  O         14.2200   -8.1710    5.9680 O.2    25  GLU25      -0.2715
     42  CB        13.6350  -11.3800    5.2860 C.3    25  GLU25       0.0429
     43  CG        15.1740  -11.4760    5.2390 C.3    25  GLU25       0.1163
     44  CD        15.7070  -12.7960    5.7290 C.2    25  GLU25       0.3649
     45  OE1       14.8990  -13.7740    5.8070 O.co2  25  GLU25      -0.2457
     46  OE2       16.9400  -12.8880    6.0150 O.co2  25  GLU25      -0.2457
     47  N         12.3860   -9.0840    6.9370 N.am   26  LEU26      -0.1977
     48  CA        12.4040   -8.2670    8.1220 C.3    26  LEU26       0.1596
     49  C         13.5270   -8.7960    8.9920 C.2    26  LEU26       0.2287
     50  O         13.6070   -9.9800    9.1950 O.2    26  LEU26      -0.2864
     51  CB        11.0180   -8.3440    8.8560 C.3    26  LEU26       0.0297
     52  CG        11.0080   -7.7570   10.2740 C.3    26  LEU26       0.0022
     53  CD1       11.0230   -6.2540   10.2110 C.3    26  LEU26       0.0001
     54  CD2        9.7680   -8.2260   11.0320 C.3    26  LEU26       0.0001
     55  N         18.6880   -2.1910    4.6320 N.3    60  LEU60      -0.1245
     56  CA        17.8440   -1.0860    4.3420 C.3    60  LEU60       0.1561
     57  C         17.0190   -0.7410    5.5720 C.2    60  LEU60       0.2260
     58  O         16.5340   -1.6280    6.2710 O.2    60  LEU60      -0.2867
     59  CB        16.8760   -1.4560    3.2050 C.3    60  LEU60       0.0270
     60  CG        17.1530   -0.7420    1.8850 C.3    60  LEU60       0.0019
     61  CD1       18.6190   -0.4020    1.7160 C.3    60  LEU60       0.0001
     62  CD2       16.7010   -1.6120    0.7280 C.3    60  LEU60       0.0001
     63  N         13.5590    1.1190    6.6610 N.3    62  ARG62      -0.1245
     64  CA        12.2550    1.6200    6.2120 C.3    62  ARG62       0.1563
     65  C         11.5180    2.3320    7.3600 C.2    62  ARG62       0.2260
     66  O         11.2610    1.7290    8.4300 O.2    62  ARG62      -0.2867
     67  CB        11.3970    0.5490    5.5610 C.3    62  ARG62       0.0307
     68  CG        12.1970   -0.2580    4.5300 C.3    62  ARG62       0.0489
     69  CD        11.4720   -1.4960    4.0790 C.3    62  ARG62       0.2205
     70  NE        10.2000   -1.2020    3.4290 N.pl3  62  ARG62      -0.0865
     71  CZ         9.4660   -2.0950    2.7800 C.cat  62  ARG62       0.5346
     72  NH1        9.8300   -3.3870    2.6740 N.pl3  62  ARG62       0.1354
     73  NH2        8.3120   -1.6960    2.2330 N.pl3  62  ARG62       0.1354
     74  N          3.0940   -4.4150    7.3800 N.3    68  ARG68      -0.1231
     75  CA         4.3100   -5.2370    7.4670 C.3    68  ARG68       0.1694
     76  C          4.9400   -5.5100    6.1250 C.2    68  ARG68       0.2593
     77  O          6.1150   -5.2510    5.9370 O.2    68  ARG68      -0.2718
     78  CB         4.1560   -6.5490    8.2420 C.3    68  ARG68       0.0321
     79  CG         5.4690   -7.3930    8.2490 C.3    68  ARG68       0.0489
     80  CD         5.3720   -8.6950    9.0680 C.3    68  ARG68       0.2205
     81  NE         4.2860   -9.5490    8.6030 N.pl3  68  ARG68      -0.0865
     82  CZ         4.4280  -10.5350    7.7000 C.cat  68  ARG68       0.5346
     83  NH1        5.6150  -10.8960    7.2110 N.pl3  68  ARG68       0.1354
     84  NH2        3.3420  -11.1890    7.2980 N.pl3  68  ARG68       0.1354
     85  N          4.1540   -6.0660    5.1780 N.am   69  THR69      -0.1939
     86  CA         4.7210   -6.4820    3.8800 C.3    69  THR69       0.2028
     87  C          4.5590   -5.5190    2.6740 C.2    69  THR69       0.2642
     88  O          5.3560   -5.5410    1.7160 O.2    69  THR69      -0.2714
     89  CB         4.1740   -7.8300    3.5380 C.3    69  THR69       0.1808
     90  OG1        2.7610   -7.6960    3.4390 O.3    69  THR69      -0.2208
     91  CG2        4.5310   -8.8080    4.6640 C.3    69  THR69       0.0379
     92  N          3.5520   -4.6780    2.7080 N.am   70  ARG70      -0.1963
     93  CA         3.2740   -3.7770    1.5910 C.3    70  ARG70       0.1729
     94  C          4.2500   -2.6410    1.4170 C.2    70  ARG70       0.2616
     95  O          4.7810   -2.0550    2.3800 O.2    70  ARG70      -0.2715
     96  CB         1.8270   -3.2340    1.6490 C.3    70  ARG70       0.0348
     97  CG         0.7670   -4.2040    1.0370 C.3    70  ARG70       0.0492
     98  CD         0.4780   -5.4380    1.9060 C.3    70  ARG70       0.2205
     99  NE        -0.7430   -6.1860    1.6090 N.pl3  70  ARG70      -0.0865
    100  CZ        -1.5150   -6.7630    2.5440 C.cat  70  ARG70       0.5346
    101  NH1       -1.2540   -6.6630    3.8490 N.pl3  70  ARG70       0.1354
    102  NH2       -2.5790   -7.4550    2.1550 N.pl3  70  ARG70       0.1354
    103  N          4.4620   -2.2810    0.1800 N.am   71  TYR71      -0.1974
    104  CA         5.2620   -1.1180   -0.0560 C.3    71  TYR71       0.1639
    105  C          4.3380    0.1210   -0.0370 C.2    71  TYR71       0.2290
    106  O          3.5590    0.3660   -0.9660 O.2    71  TYR71      -0.2864
    107  CB         6.1870   -1.2170   -1.2840 C.3    71  TYR71       0.0560
    108  CG         6.8270    0.1110   -1.6040 C.ar   71  TYR71      -0.0198
    109  CD1        7.8840    0.6310   -0.8590 C.ar   71  TYR71      -0.0009
    110  CD2        6.2980    0.9040   -2.6180 C.ar   71  TYR71      -0.0009
    111  CE1        8.4310    1.8830   -1.1500 C.ar   71  TYR71       0.0417
    112  CE2        6.8220    2.1610   -2.9220 C.ar   71  TYR71       0.0417
    113  CZ         7.8870    2.6560   -2.1770 C.ar   71  TYR71       0.1957
    114  OH         8.4300    3.8910   -2.4950 O.3    71  TYR71      -0.2866
    115  N          5.8560    5.7430    3.3450 N.3    76  GLU76      -0.1231
    116  CA         7.1330    5.3010    3.8560 C.3    76  GLU76       0.1699
    117  C          8.2870    5.8650    3.0910 C.2    76  GLU76       0.2592
    118  O          8.1740    6.2200    1.9040 O.2    76  GLU76      -0.2718
    119  CB         7.2330    3.7670    3.9420 C.3    76  GLU76       0.0402
    120  CG         7.6110    3.0690    2.6020 C.3    76  GLU76       0.1161
    121  CD         7.8670    1.5920    2.7680 C.2    76  GLU76       0.3649
    122  OE1        6.8790    0.7940    2.6990 O.co2  76  GLU76      -0.2457
    123  OE2        9.0420    1.2380    3.0830 O.co2  76  GLU76      -0.2457
    124  N          9.4240    5.9170    3.8050 N.am   77  LYS77      -0.1966
    125  CA        10.7120    6.3280    3.2730 C.3    77  LYS77       0.1728
    126  C         11.7410    5.2090    3.4990 C.2    77  LYS77       0.2616
    127  O         11.7510    4.5670    4.5510 O.2    77  LYS77      -0.2715
    128  CB        11.1990    7.6630    3.8300 C.3    77  LYS77       0.0311
    129  CG        10.9090    8.8080    2.8700 C.3    77  LYS77       0.0038
    130  CD         9.4170    9.0030    2.6190 C.3    77  LYS77       0.0206
    131  CE         9.0990    9.8070    1.3540 C.3    77  LYS77       0.1093
    132  NZ         7.7320    9.5850    0.8410 N.3    77  LYS77      -0.1314
    133  N         12.5320    4.9320    2.4450 N.am   78  ILE78      -0.1977
    134  CA        13.5790    3.9260    2.4570 C.3    78  ILE78       0.1596
    135  C         14.9320    4.5990    2.4310 C.2    78  ILE78       0.2287
    136  O         15.1600    5.5090    1.6530 O.2    78  ILE78      -0.2864
    137  CB        13.4180    2.9390    1.3220 C.3    78  ILE78       0.0276
    138  CG1       12.0300    2.3590    1.4420 C.3    78  ILE78       0.0022
    139  CG2       14.4650    1.8310    1.4700 C.3    78  ILE78       0.0022
    140  CD1       11.7670    1.2310    0.4890 C.3    78  ILE78       0.0001
    141  N         19.3700    4.4120    3.0510 N.3    80  MET80      -0.1245
    142  CA        20.5860    3.6680    3.0280 C.3    80  MET80       0.1570
    143  C         21.4880    4.0710    4.1530 C.2    80  MET80       0.2261
    144  O         21.5010    5.2300    4.5840 O.2    80  MET80      -0.2867
    145  CB        21.3080    3.7930    1.6930 C.3    80  MET80       0.0387
    146  CG        20.6040    2.9970    0.6020 C.3    80  MET80       0.0595
    147  SD        21.2440    3.3760   -1.0420 S.3    80  MET80      -0.1393
    148  CE        20.8180    1.8340   -1.8970 C.3    80  MET80       0.0692
    149  N          2.0700  -14.2880   11.7650 N.3   150  GLN150     -0.1245
    150  CA         2.6800  -12.9960   11.4940 C.3   150  GLN150      0.1566
    151  C          1.6220  -11.9380   11.2340 C.2   150  GLN150      0.2260
    152  O          0.6840  -12.1740   10.4690 O.2   150  GLN150     -0.2867
    153  CB         3.6850  -13.0430   10.3480 C.3   150  GLN150      0.0367
    154  CG         5.0780  -13.4810   10.8020 C.3   150  GLN150      0.0905
    155  CD         5.7820  -14.3320    9.7550 C.2   150  GLN150      0.2608
    156  OE1        5.2990  -14.4730    8.6110 O.2   150  GLN150     -0.2717
    157  NE2        6.8920  -14.9610   10.1540 N.am  150  GLN150     -0.0878
@<TRIPOS>BOND
     1   112   110   ar
     2   112   113   ar
     3   110   108   ar
     4   114   113    1
     5    37    35   am
     6   113   111   ar
     7   148   147    1
     8   108   107    1
     9   108   109   ar
    10    35    36    2
    11    35    34    1
    12   107   104    1
    13   111   109   ar
    14   147   146    1
    15   106   105    2
    16    23    22    2
    17    34    33    1
    18    28    27    1
    19    26    27    1
    20    26    25    1
    21   104   105    1
    22   104   103    1
    23    22    21    1
    24   103    94   am
    25    33    30    1
    26    25    24    1
    27    24    21    1
    28   140   138    1
    29   146   145    1
    30    29    30    1
    31    62    60    1
    32   132   131    1
    33    21    20    1
    34    97    96    1
    35    97    98    1
    36    30    31    1
    37   137   138    1
    38   137   139    1
    39   137   134    1
    40   131   130    1
    41    94    93    1
    42    94    95    2
    43    93    96    1
    44    93    92    1
    45    99    98    1
    46    99   100    2
    47   136   135    2
    48   145   142    1
    49    88    87    2
    50    61    60    1
    51    60    59    1
    52   118   117    2
    53    18    19   ar
    54    18    16   ar
    55   102   100    1
    56    73    71    1
    57    32    31    2
    58   135   134    1
    59   133   134    1
    60   133   126   am
    61    19    17   ar
    62    31    38   am
    63   100   101    1
    64   120   121    1
    65   120   119    1
    66   130   129    1
    67    72    71    1
    68    87    92   am
    69    87    86    1
    70   122   121   ar
    71   121   123   ar
    72    71    70    2
    73   129   128    1
    74    16    14   ar
    75   142   141    1
    76   142   143    1
    77   117   124   am
    78   117   116    1
    79    59    56    1
    80   125   126    1
    81   125   124    1
    82   125   128    1
    83   115   116    1
    84    70    69    1
    85    90    89    1
    86   126   127    2
    87    89    86    1
    88    89    91    1
    89    38    39    1
    90    17    15   ar
    91   116   119    1
    92    86    85    1
    93    69    68    1
    94   143   144    2
    95    56    55    1
    96    56    57    1
    97    14    15   ar
    98    14    13    1
    99    68    67    1
   100    12    11    2
   101    39    42    1
   102    39    40    1
   103    85    76   am
   104    43    42    1
   105    43    44    1
   106    13    10    1
   107    11    10    1
   108    67    64    1
   109    57    58    2
   110    44    45   ar
   111    44    46   ar
   112    77    76    2
   113    41    40    2
   114    40    47   am
   115    76    75    1
   116    10     9    1
   117    64    63    1
   118    64    65    1
   119    47    48    1
   120    83    82    1
   121    84    82    1
   122     7     8    1
   123     7     6    1
   124    65    66    2
   125    74    75    1
   126    75    78    1
   127    82    81    2
   128    48    51    1
   129    48    49    1
   130    78    79    1
   131    79    80    1
   132     4     3    2
   133    81    80    1
   134   156   155    2
   135     6     5    1
   136    51    52    1
   137    49    50    2
   138     5     2    1
   139     3     2    1
   140   155   157   am
   141   155   154    1
   142     2     1    1
   143    53    52    1
   144    52    54    1
   145   153   154    1
   146   153   150    1
   147   152   151    2
   148   151   150    1
   149   150   149    1
