@<TRIPOS>MOLECULE
tmp/1aecA00.pdb
 146 142 0 0 0
SMALL
GASTEIGER

@<TRIPOS>ATOM
      1  N         65.2150   23.5760   23.5890 N.3    19  GLN19      -0.1245
      2  CA        65.8360   22.4840   22.8330 C.3    19  GLN19       0.1566
      3  C         67.2120   22.8170   22.2610 C.2    19  GLN19       0.2260
      4  O         67.9510   21.9450   21.8120 O.2    19  GLN19      -0.2867
      5  CB        64.9010   22.0600   21.7030 C.3    19  GLN19       0.0367
      6  CG        64.6320   23.1390   20.6870 C.3    19  GLN19       0.0905
      7  CD        63.8210   22.6440   19.5200 C.2    19  GLN19       0.2608
      8  OE1       62.5950   22.7320   19.4860 O.2    19  GLN19      -0.2717
      9  NE2       64.5340   22.1430   18.5260 N.am   19  GLN19      -0.0878
     10  N         67.6160   19.3520   16.4530 N.3    23  GLY23      -0.1225
     11  CA        66.2960   19.3800   15.8340 C.3    23  GLY23       0.1811
     12  C         65.3480   18.3550   16.4550 C.2    23  GLY23       0.2280
     13  O         64.7960   17.4930   15.7570 O.2    23  GLY23      -0.2866
     14  N         62.3250   18.9920   18.1210 N.3    25  CYS25      -0.1221
     15  CA        61.0060   19.5080   18.4750 C.3    25  CYS25       0.1808
     16  C         59.9300   18.4230   18.5340 C.2    25  CYS25       0.2601
     17  O         59.0170   18.5380   19.3460 O.2    25  CYS25      -0.2717
     18  CB        60.5570   20.5780   17.4730 C.3    25  CYS25       0.0970
     19  SG        60.3580   19.9300   15.7920 S.3    25  CYS25      -0.0800
     20  N         60.0350   17.3450   17.7260 N.am   26  TRP26      -0.1976
     21  CA        59.0640   16.2610   17.6960 C.3    26  TRP26       0.1640
     22  C         59.0440   15.5890   19.0680 C.2    26  TRP26       0.2290
     23  O         57.9570   15.2680   19.5520 O.2    26  TRP26      -0.2864
     24  CB        59.4490   15.2490   16.5740 C.3    26  TRP26       0.0576
     25  CG        60.8190   14.5760   16.7620 C.ar   26  TRP26       0.0006
     26  CD1       61.9630   15.1630   16.2890 C.ar   26  TRP26       0.0946
     27  CD2       61.0780   13.3970   17.4470 C.ar   26  TRP26       0.0152
     28  NE1       62.9410   14.3700   16.6810 N.ar   26  TRP26      -0.2442
     29  CE2       62.4580   13.3140   17.3740 C.ar   26  TRP26       0.0810
     30  CE3       60.3390   12.4230   18.1190 C.ar   26  TRP26       0.0012
     31  CZ2       63.1270   12.2560   17.9760 C.ar   26  TRP26       0.0191
     32  CZ3       61.0040   11.3620   18.7220 C.ar   26  TRP26       0.0001
     33  CH2       62.3950   11.2820   18.6500 C.ar   26  TRP26       0.0015
     34  N         61.7170    7.5980    9.7530 N.3    61  ASN61      -0.1240
     35  CA        62.1670    8.9500    9.4880 C.3    61  ASN61       0.1653
     36  C         62.2550    9.8230   10.7130 C.2    61  ASN61       0.2266
     37  O         62.2860   11.0380   10.5960 O.2    61  ASN61      -0.2867
     38  CB        61.2420    9.5800    8.4440 C.3    61  ASN61       0.1155
     39  CG        61.5010    8.9180    7.0870 C.2    61  ASN61       0.2627
     40  OD1       62.6340    8.8160    6.6260 O.2    61  ASN61      -0.2716
     41  ND2       60.4740    8.3950    6.4400 N.am   61  ASN61      -0.0877
     42  N         64.7790   10.5240   13.4360 N.3    63  ARG63      -0.1245
     43  CA        66.2170   10.3900   13.5400 C.3    63  ARG63       0.1563
     44  C         66.8960   11.3780   14.4950 C.2    63  ARG63       0.2260
     45  O         67.8070   12.1430   14.1430 O.2    63  ARG63      -0.2867
     46  CB        66.7680   10.4990   12.0900 C.3    63  ARG63       0.0307
     47  CG        66.3120    9.3070   11.2320 C.3    63  ARG63       0.0489
     48  CD        66.8310    9.2190    9.8070 C.3    63  ARG63       0.2205
     49  NE        66.0710    8.1920    9.0900 N.pl3  63  ARG63      -0.0865
     50  CZ        66.3140    7.8100    7.8150 C.cat  63  ARG63       0.5346
     51  NH1       67.3600    8.2950    7.1460 N.pl3  63  ARG63       0.1354
     52  NH2       65.5380    6.9010    7.2030 N.pl3  63  ARG63       0.1354
     53  N         68.2220   15.0810   14.0980 N.3    66  ASN66      -0.1225
     54  CA        67.9690   15.2870   12.6920 C.3    66  ASN66       0.1785
     55  C         66.5060   15.4270   12.3260 C.2    66  ASN66       0.2598
     56  O         66.1900   15.4600   11.1430 O.2    66  ASN66      -0.2718
     57  CB        68.5110   14.1500   11.8670 C.3    66  ASN66       0.1169
     58  CG        69.7090   14.6360   11.0990 C.2    66  ASN66       0.2627
     59  OD1       69.6790   15.5810   10.3080 O.2    66  ASN66      -0.2716
     60  ND2       70.8130   13.9910   11.4230 N.am   66  ASN66      -0.0877
     61  N         65.5750   15.5020   13.2730 N.am   67  GLY67      -0.1942
     62  CA        64.1760   15.6780   12.9410 C.3    67  GLY67       0.2014
     63  C         63.4050   14.3800   13.0670 C.2    67  GLY67       0.2639
     64  O         63.9860   13.3040   13.0740 O.2    67  GLY67      -0.2714
     65  N         62.0730   14.4590   13.1240 N.am   68  GLY68      -0.1939
     66  CA        61.2780   13.2620   13.3090 C.3    68  GLY68       0.2014
     67  C         59.8050   13.5960   13.3640 C.2    68  GLY68       0.2639
     68  O         59.3820   14.6840   12.9700 O.2    68  GLY68      -0.2714
     69  N         59.0150   12.6690   13.8990 N.am   69  TYR69      -0.1959
     70  CA        57.5570   12.8170   13.9340 C.3    69  TYR69       0.1771
     71  C         57.0130   12.5930   15.3310 C.2    69  TYR69       0.2619
     72  O         57.4380   11.6860   16.0550 O.2    69  TYR69      -0.2715
     73  CB        56.8910   11.8160   12.9530 C.3    69  TYR69       0.0574
     74  CG        57.1850   12.2160   11.5110 C.ar   69  TYR69      -0.0198
     75  CD1       58.3540   11.7550   10.9140 C.ar   69  TYR69      -0.0009
     76  CD2       56.3510   13.1050   10.8400 C.ar   69  TYR69      -0.0009
     77  CE1       58.6980   12.1930    9.6520 C.ar   69  TYR69       0.0417
     78  CE2       56.6890   13.5470    9.5710 C.ar   69  TYR69       0.0417
     79  CZ        57.8620   13.0860    8.9970 C.ar   69  TYR69       0.1957
     80  OH        58.2460   13.5290    7.7460 O.3    69  TYR69      -0.2866
     81  N         56.0510   13.4520   15.6900 N.am   70  ILE70      -0.1977
     82  CA        55.4410   13.4430   17.0170 C.3    70  ILE70       0.1596
     83  C         54.9050   12.0480   17.3610 C.2    70  ILE70       0.2287
     84  O         55.1850   11.5240   18.4410 O.2    70  ILE70      -0.2864
     85  CB        54.2910   14.4800   17.0540 C.3    70  ILE70       0.0276
     86  CG1       54.7980   15.8930   16.7450 C.3    70  ILE70       0.0022
     87  CG2       53.6580   14.4550   18.4310 C.3    70  ILE70       0.0022
     88  CD1       53.6460   16.8260   16.3310 C.3    70  ILE70       0.0001
     89  N         51.9190   20.6170   14.7240 N.3   136  ALA136     -0.1245
     90  CA        53.1010   21.1970   14.1040 C.3   136  ALA136      0.1562
     91  C         52.6300   22.3550   13.2440 C.2   136  ALA136      0.2260
     92  O         51.4750   22.4510   12.8120 O.2   136  ALA136     -0.2867
     93  CB        53.8260   20.1710   13.2380 C.3   136  ALA136      0.0290
     94  N         54.3930   22.4680    7.2980 N.3   160  ILE160     -0.1231
     95  CA        54.8890   22.5080    8.6660 C.3   160  ILE160      0.1692
     96  C         56.2360   21.8340    8.8770 C.2   160  ILE160      0.2592
     97  O         56.6430   20.9050    8.1730 O.2   160  ILE160     -0.2718
     98  CB        53.7990   21.9290    9.5880 C.3   160  ILE160      0.0266
     99  CG1       53.6160   20.4650    9.3730 C.3   160  ILE160      0.0019
    100  CG2       52.4990   22.7760    9.3670 C.3   160  ILE160      0.0020
    101  CD1       52.3360   20.1970   10.1470 C.3   160  ILE160      0.0001
    102  N         56.9770   22.4430    9.7990 N.am  161  ASP161     -0.1960
    103  CA        58.3250   21.9810   10.0850 C.3   161  ASP161      0.1840
    104  C         58.7620   22.0320   11.5470 C.2   161  ASP161      0.2622
    105  O         59.9330   21.7940   11.8680 O.2   161  ASP161     -0.2715
    106  CB        59.2910   22.8080    9.2370 C.3   161  ASP161      0.1450
    107  CG        59.3240   24.3120    9.5110 C.2   161  ASP161      0.3671
    108  OD1       58.7100   24.8060   10.4580 O.co2 161  ASP161     -0.2456
    109  OD2       59.9940   25.0000    8.7530 O.co2 161  ASP161     -0.2456
    110  N         57.8170   22.3850   12.4230 N.am  162  HIS162     -0.1959
    111  CA        58.1600   22.5660   13.8120 C.3   162  HIS162      0.1787
    112  C         57.0210   22.1620   14.7260 C.2   162  HIS162      0.2620
    113  O         55.9460   22.7450   14.7000 O.2   162  HIS162     -0.2715
    114  CB        58.5470   24.0320   14.0480 C.3   162  HIS162      0.0785
    115  CG        59.0570   24.2900   15.4650 C.ar  162  HIS162      0.0821
    116  ND1       60.1560   23.8010   16.0170 N.ar  162  HIS162     -0.2267
    117  CD2       58.4250   25.0580   16.4060 C.ar  162  HIS162      0.1154
    118  CE1       60.2290   24.2390   17.2430 C.ar  162  HIS162      0.1986
    119  NE2       59.1800   24.9830   17.4630 N.ar  162  HIS162     -0.2212
    120  N         57.2260   21.1210   15.5190 N.am  163  ALA163     -0.1977
    121  CA        56.2400   20.6270   16.4610 C.3   163  ALA163      0.1597
    122  C         56.2340   21.4160   17.7580 C.2   163  ALA163      0.2287
    123  O         57.2690   21.7980   18.3040 O.2   163  ALA163     -0.2864
    124  CB        56.5340   19.1660   16.7600 C.3   163  ALA163      0.0319
    125  N         61.6060   26.8810   22.8590 N.3   184  TRP184     -0.1241
    126  CA        62.7340   27.7710   22.5670 C.3   184  TRP184      0.1605
    127  C         63.0830   28.6750   23.7590 C.2   184  TRP184      0.2264
    128  O         63.5000   29.8230   23.6000 O.2   184  TRP184     -0.2867
    129  CB        62.3850   28.6230   21.3240 C.3   184  TRP184      0.0550
    130  CG        62.3230   27.9110   19.9640 C.ar  184  TRP184      0.0003
    131  CD1       62.7760   26.6250   19.7440 C.ar  184  TRP184      0.0946
    132  CD2       61.8180   28.4790   18.8170 C.ar  184  TRP184      0.0152
    133  NE1       62.5500   26.3870   18.4680 N.ar  184  TRP184     -0.2442
    134  CE2       61.9810   27.4630   17.8850 C.ar  184  TRP184      0.0810
    135  CE3       61.2570   29.6890   18.4570 C.ar  184  TRP184      0.0012
    136  CZ2       61.5880   27.6380   16.5720 C.ar  184  TRP184      0.0191
    137  CZ3       60.8610   29.8650   17.1380 C.ar  184  TRP184      0.0001
    138  CH2       61.0270   28.8530   16.2090 C.ar  184  TRP184      0.0015
    139  N         48.0640   18.5970   11.3900 N.3   211  MET211     -0.1245
    140  CA        48.3610   17.2340   11.8210 C.3   211  MET211      0.1570
    141  C         48.4850   17.1320   13.3360 C.2   211  MET211      0.2261
    142  O         49.5660   16.9320   13.8980 O.2   211  MET211     -0.2867
    143  CB        49.6590   16.7000   11.1440 C.3   211  MET211      0.0387
    144  CG        51.0250   17.3170   11.3920 C.3   211  MET211      0.0595
    145  SD        52.2960   16.4600   10.4220 S.3   211  MET211     -0.1393
    146  CE        52.1090   14.8320   11.0540 C.3   211  MET211      0.0692
@<TRIPOS>BOND
     1    41    39   am
     2    40    39    2
     3    39    38    1
     4    51    50    1
     5    52    50    1
     6    94    95    1
     7    80    79    1
     8    50    49    2
     9    97    96    2
    10    38    35    1
    11    95    96    1
    12    95    98    1
    13   109   107   ar
    14    96   102   am
    15    79    78   ar
    16    79    77   ar
    17    49    48    1
    18   106   107    1
    19   106   103    1
    20   100    98    1
    21    99    98    1
    22    99   101    1
    23    35    34    1
    24    35    36    1
    25   107   108   ar
    26    78    76   ar
    27    77    75   ar
    28   102   103    1
    29    48    47    1
    30   103   104    1
    31    59    58    2
    32   145   146    1
    33   145   144    1
    34    37    36    2
    35    76    74   ar
    36    75    74   ar
    37    58    60   am
    38    58    57    1
    39    56    55    2
    40   143   144    1
    41   143   140    1
    42    47    46    1
    43   139   140    1
    44    74    73    1
    45   104   105    2
    46   104   110   am
    47   140   141    1
    48    57    54    1
    49    46    43    1
    50    55    54    1
    51    55    61   am
    52   110   111    1
    53    54    53    1
    54    92    91    2
    55    62    63    1
    56    62    61    1
    57    73    70    1
    58    68    67    2
    59    63    64    2
    60    63    65   am
    61    65    66    1
    62    93    90    1
    63    91    90    1
    64    66    67    1
    65   141   142    2
    66    67    69   am
    67    42    43    1
    68    43    44    1
    69   111   114    1
    70   111   112    1
    71    69    70    1
    72    70    71    1
    73   114   115    1
    74    90    89    1
    75    45    44    2
    76   113   112    2
    77   112   120   am
    78    71    81   am
    79    71    72    2
    80   115   116   ar
    81   115   117   ar
    82   120   121    1
    83    81    82    1
    84    13    12    2
    85    19    18    1
    86    11    10    1
    87    11    12    1
    88   116   118   ar
    89   138   136   ar
    90   138   137   ar
    91    26    28   ar
    92    26    25   ar
    93    88    86    1
    94   117   119   ar
    95   121   124    1
    96   121   122    1
    97   136   134   ar
    98    24    25    1
    99    24    21    1
   100    28    29   ar
   101    86    85    1
   102    25    27   ar
   103    82    85    1
   104    82    83    1
   105    85    87    1
   106   137   135   ar
   107   118   119   ar
   108    83    84    2
   109    29    27   ar
   110    29    31   ar
   111    27    30   ar
   112    18    15    1
   113    21    20    1
   114    21    22    1
   115    20    16   am
   116   122   123    2
   117   134   133   ar
   118   134   132   ar
   119    31    33   ar
   120    30    32   ar
   121    14    15    1
   122   135   132   ar
   123   133   131   ar
   124    15    16    1
   125     9     7   am
   126    16    17    2
   127    33    32   ar
   128   132   130   ar
   129    22    23    2
   130     8     7    2
   131     7     6    1
   132   131   130   ar
   133   130   129    1
   134     6     5    1
   135   129   126    1
   136     5     2    1
   137     4     3    2
   138     3     2    1
   139   126   125    1
   140   126   127    1
   141     2     1    1
   142   128   127    2
