@<TRIPOS>MOLECULE
tmp/1aefA01.pdb
 96 93 0 0 0
SMALL
GASTEIGER

@<TRIPOS>ATOM
      1  N         28.6810   88.9590   49.4630 N.3   172  HIS172     -0.1241
      2  CA        29.5450   89.9750   48.8730 C.3   172  HIS172      0.1621
      3  C         30.0090   89.6400   47.4570 C.2   172  HIS172      0.2264
      4  O         30.6990   90.4440   46.8720 O.2   172  HIS172     -0.2867
      5  CB        30.7770   90.2290   49.7510 C.3   172  HIS172      0.0745
      6  CG        30.4830   91.2170   50.8720 C.ar  172  HIS172      0.0817
      7  ND1       31.1970   91.5850   51.9230 N.ar  172  HIS172     -0.2268
      8  CD2       29.3310   91.9630   50.9550 C.ar  172  HIS172      0.1154
      9  CE1       30.5620   92.5020   52.6020 C.ar  172  HIS172      0.1986
     10  NE2       29.4210   92.7260   52.0090 N.ar  172  HIS172     -0.2212
     11  N         27.8400   89.6260   45.2080 N.3   174  LEU174     -0.1231
     12  CA        26.8050   90.4600   44.6220 C.3   174  LEU174      0.1693
     13  C         27.0820   91.9440   44.6270 C.2   174  LEU174      0.2593
     14  O         27.6090   92.4430   45.6160 O.2   174  LEU174     -0.2718
     15  CB        25.4690   90.2680   45.3620 C.3   174  LEU174      0.0284
     16  CG        24.9170   88.8760   45.4440 C.3   174  LEU174      0.0019
     17  CD1       23.8380   88.8100   46.5030 C.3   174  LEU174      0.0001
     18  CD2       24.4670   88.4780   44.0640 C.3   174  LEU174      0.0001
     19  N         26.7160   92.6710   43.5690 N.am  175  GLY175     -0.1942
     20  CA        26.8080   94.1200   43.5290 C.3   175  GLY175      0.2014
     21  C         28.2220   94.6690   43.5630 C.2   175  GLY175      0.2639
     22  O         29.1390   94.1400   42.9320 O.2   175  GLY175     -0.2714
     23  N         28.4440   95.7530   44.2940 N.am  176  LYS176     -0.1963
     24  CA        29.7770   96.3290   44.3430 C.3   176  LYS176      0.1728
     25  C         29.8960   97.3460   45.4450 C.2   176  LYS176      0.2616
     26  O         28.8960   97.8050   46.0030 O.2   176  LYS176     -0.2715
     27  CB        30.1110   97.0270   43.0190 C.3   176  LYS176      0.0311
     28  CG        29.2460   98.2520   42.7210 C.3   176  LYS176      0.0038
     29  CD        29.5690   98.9310   41.3870 C.3   176  LYS176      0.0206
     30  CE        30.8490   99.7670   41.3620 C.3   176  LYS176      0.1093
     31  NZ        30.7140  100.9810   42.1450 N.3   176  LYS176     -0.1314
     32  N         31.1110   97.7580   45.7790 N.am  177  THR177     -0.1951
     33  CA        31.2480   98.8810   46.6890 C.3   177  THR177      0.1897
     34  C         31.3100  100.1570   45.8500 C.2   177  THR177      0.2313
     35  O         31.6970  100.2070   44.6750 O.2   177  THR177     -0.2863
     36  CB        32.5120   98.7620   47.5500 C.3   177  THR177      0.1794
     37  OG1       33.6110   98.7780   46.6570 O.3   177  THR177     -0.2208
     38  CG2       32.5460   97.4860   48.3700 C.3   177  THR177      0.0378
     39  N         34.6350   99.2340   43.7200 N.3   186  GLY186     -0.1210
     40  CA        34.8100   98.1000   42.8340 C.3   186  GLY186      0.1940
     41  C         33.9060   96.8750   43.0890 C.2   186  GLY186      0.2454
     42  O         33.3120   96.7110   44.1580 O.2   186  GLY186     -0.2732
     43  N         33.7800   95.9520   42.1460 N.am  187  PRO187     -0.2717
     44  CA        33.0680   94.7050   42.3070 C.3   187  PRO187      0.1535
     45  C         33.9850   93.5920   42.7740 C.2   187  PRO187      0.2599
     46  O         35.2020   93.6930   42.6860 O.2   187  PRO187     -0.2715
     47  CB        32.4650   94.4750   40.9440 C.3   187  PRO187      0.0310
     48  CG        33.6000   94.9070   40.0320 C.3   187  PRO187      0.0237
     49  CD        34.3080   96.0570   40.7890 C.3   187  PRO187      0.0939
     50  N         33.4520   92.4730   43.2350 N.am  188  GLY188     -0.1955
     51  CA        34.2640   91.3690   43.7290 C.3   188  GLY188      0.1869
     52  C         34.3320   90.2150   42.7620 C.2   188  GLY188      0.2309
     53  O         34.9270   89.1650   43.0110 O.2   188  GLY188     -0.2863
     54  N         32.5370   84.3640   45.2900 N.3   199  PHE199     -0.1241
     55  CA        33.2880   85.0770   46.3020 C.3   199  PHE199      0.1605
     56  C         34.4140   84.2040   46.8690 C.2   199  PHE199      0.2264
     57  O         35.5510   84.6420   47.0020 O.2   199  PHE199     -0.2867
     58  CB        32.3300   85.4720   47.3840 C.3   199  PHE199      0.0534
     59  CG        32.9460   86.0910   48.6220 C.ar  199  PHE199     -0.0203
     60  CD1       33.1960   87.4500   48.6520 C.ar  199  PHE199     -0.0042
     61  CD2       33.2020   85.2910   49.7190 C.ar  199  PHE199     -0.0042
     62  CE1       33.6980   88.0070   49.8010 C.ar  199  PHE199     -0.0003
     63  CE2       33.7050   85.8720   50.8620 C.ar  199  PHE199     -0.0003
     64  CZ        33.9490   87.2230   50.9010 C.ar  199  PHE199     -0.0000
     65  N         37.9210   93.6230   43.6450 N.3   227  MET227     -0.1230
     66  CA        38.4110   94.1520   44.8860 C.3   227  MET227      0.1702
     67  C         37.8170   93.3670   46.0430 C.2   227  MET227      0.2592
     68  O         36.7930   92.7010   45.9090 O.2   227  MET227     -0.2718
     69  CB        38.0460   95.6350   44.9950 C.3   227  MET227      0.0401
     70  CG        36.6120   96.0960   45.2750 C.3   227  MET227      0.0596
     71  SD        35.9420   95.7350   46.9240 S.3   227  MET227     -0.1393
     72  CE        36.6760   97.0050   47.9030 C.3   227  MET227      0.0692
     73  N         38.4950   93.3360   47.1770 N.am  228  MET228     -0.1965
     74  CA        37.9880   92.7300   48.3910 C.3   228  MET228      0.1736
     75  C         38.2200   93.7360   49.5110 C.2   228  MET228      0.2616
     76  O         39.1740   94.5270   49.5050 O.2   228  MET228     -0.2715
     77  CB        38.7130   91.4280   48.7490 C.3   228  MET228      0.0427
     78  CG        38.3670   90.2150   47.8940 C.3   228  MET228      0.0599
     79  SD        36.7380   89.4910   48.2410 S.3   228  MET228     -0.1393
     80  CE        36.5030   88.4140   46.8400 C.3   228  MET228      0.0692
     81  N         37.2810   93.8010   50.4540 N.am  229  LEU229     -0.1977
     82  CA        37.4160   94.6660   51.6310 C.3   229  LEU229      0.1596
     83  C         38.4180   94.0430   52.6220 C.2   229  LEU229      0.2287
     84  O         38.5660   92.8100   52.5950 O.2   229  LEU229     -0.2864
     85  CB        36.0540   94.8150   52.3670 C.3   229  LEU229      0.0297
     86  CG        34.8740   95.4950   51.7020 C.3   229  LEU229      0.0022
     87  CD1       33.5630   95.1140   52.4260 C.3   229  LEU229      0.0001
     88  CD2       35.1550   96.9740   51.6880 C.3   229  LEU229      0.0001
     89  N         36.7660   91.2500   54.2640 N.3   232  ASP232     -0.1239
     90  CA        36.5870   90.1060   53.3460 C.3   232  ASP232      0.1674
     91  C         37.8030   89.1980   53.1890 C.2   232  ASP232      0.2266
     92  O         37.7560   87.9630   53.1760 O.2   232  ASP232     -0.2867
     93  CB        36.2640   90.5120   51.9110 C.3   232  ASP232      0.1410
     94  CG        34.9060   91.1640   51.6700 C.2   232  ASP232      0.3668
     95  OD1       33.9380   90.8520   52.3680 O.co2 232  ASP232     -0.2456
     96  OD2       34.8370   91.9760   50.7520 O.co2 232  ASP232     -0.2456
@<TRIPOS>BOND
     1    48    49    1
     2    48    47    1
     3    49    43    1
     4    47    44    1
     5    30    29    1
     6    30    31    1
     7    29    28    1
     8    43    44    1
     9    43    41   am
    10    44    45    1
    11    46    45    2
    12    28    27    1
    13    52    53    2
    14    52    51    1
    15    45    50   am
    16    40    41    1
    17    40    39    1
    18    22    21    2
    19    27    24    1
    20    41    42    2
    21    50    51    1
    22    20    21    1
    23    20    19    1
    24    21    23   am
    25    19    13   am
    26    65    66    1
    27    18    16    1
    28    23    24    1
    29    24    25    1
    30    12    13    1
    31    12    11    1
    32    12    15    1
    33    13    14    2
    34    35    34    2
    35    66    69    1
    36    66    67    1
    37    69    70    1
    38    70    71    1
    39    54    55    1
    40    15    16    1
    41    16    17    1
    42    25    32   am
    43    25    26    2
    44    32    33    1
    45    34    33    1
    46    68    67    2
    47    67    73   am
    48    55    56    1
    49    55    58    1
    50    37    36    1
    51    33    36    1
    52    80    79    1
    53    56    57    2
    54     4     3    2
    55    71    72    1
    56    73    74    1
    57    58    59    1
    58     3     2    1
    59    36    38    1
    60    78    79    1
    61    78    77    1
    62    74    77    1
    63    74    75    1
    64    59    60   ar
    65    59    61   ar
    66    60    62   ar
    67     2     1    1
    68     2     5    1
    69    76    75    2
    70    75    81   am
    71    61    63   ar
    72     5     6    1
    73    62    64   ar
    74    81    82    1
    75    96    94   ar
    76    63    64   ar
    77     6     8   ar
    78     6     7   ar
    79     8    10   ar
    80    82    85    1
    81    82    83    1
    82    94    93    1
    83    94    95   ar
    84    88    86    1
    85    86    85    1
    86    86    87    1
    87    93    90    1
    88     7     9   ar
    89    10     9   ar
    90    84    83    2
    91    92    91    2
    92    91    90    1
    93    90    89    1
