@<TRIPOS>MOLECULE
tmp/1aeqA01.pdb
 94 90 0 0 0
SMALL
GASTEIGER

@<TRIPOS>ATOM
      1  N         28.6810   88.9590   49.4630 N.3   172  HIS172     -0.1226
      2  CA        29.5450   89.9750   48.8730 C.3   172  HIS172      0.1752
      3  C         30.0090   89.6400   47.4570 C.2   172  HIS172      0.2596
      4  O         30.6990   90.4440   46.8720 O.2   172  HIS172     -0.2718
      5  CB        30.7770   90.2290   49.7510 C.3   172  HIS172      0.0759
      6  CG        30.4830   91.2170   50.8720 C.ar  172  HIS172      0.0818
      7  ND1       31.1970   91.5850   51.9230 N.ar  172  HIS172     -0.2268
      8  CD2       29.3310   91.9630   50.9550 C.ar  172  HIS172      0.1154
      9  CE1       30.5620   92.5020   52.6020 C.ar  172  HIS172      0.1986
     10  NE2       29.4210   92.7260   52.0090 N.ar  172  HIS172     -0.2212
     11  N         29.7200   88.4820   46.8560 N.am  173  ALA173     -0.1966
     12  CA        29.8830   88.2980   45.4040 C.3   173  ALA173      0.1728
     13  C         28.9380   89.1950   44.5880 C.2   173  ALA173      0.2616
     14  O         29.1930   89.5180   43.4380 O.2   173  ALA173     -0.2715
     15  CB        29.5580   86.8760   44.9840 C.3   173  ALA173      0.0334
     16  N         27.8400   89.6260   45.2080 N.am  174  LEU174     -0.1963
     17  CA        26.8050   90.4600   44.6220 C.3   174  LEU174      0.1728
     18  C         27.0820   91.9440   44.6270 C.2   174  LEU174      0.2617
     19  O         27.6090   92.4430   45.6160 O.2   174  LEU174     -0.2715
     20  CB        25.4690   90.2680   45.3620 C.3   174  LEU174      0.0311
     21  CG        24.9170   88.8760   45.4440 C.3   174  LEU174      0.0022
     22  CD1       23.8380   88.8100   46.5030 C.3   174  LEU174      0.0001
     23  CD2       24.4670   88.4780   44.0640 C.3   174  LEU174      0.0001
     24  N         26.7160   92.6710   43.5690 N.am  175  GLY175     -0.1940
     25  CA        26.8080   94.1200   43.5290 C.3   175  GLY175      0.2014
     26  C         28.2220   94.6690   43.5630 C.2   175  GLY175      0.2639
     27  O         29.1390   94.1400   42.9320 O.2   175  GLY175     -0.2714
     28  N         28.4440   95.7530   44.2940 N.am  176  LYS176     -0.1963
     29  CA        29.7770   96.3290   44.3430 C.3   176  LYS176      0.1728
     30  C         29.8960   97.3460   45.4450 C.2   176  LYS176      0.2616
     31  O         28.8960   97.8050   46.0030 O.2   176  LYS176     -0.2715
     32  CB        30.1110   97.0270   43.0190 C.3   176  LYS176      0.0311
     33  CG        29.2460   98.2520   42.7210 C.3   176  LYS176      0.0038
     34  CD        29.5690   98.9310   41.3870 C.3   176  LYS176      0.0206
     35  CE        30.8490   99.7670   41.3620 C.3   176  LYS176      0.1093
     36  NZ        30.7140  100.9810   42.1450 N.3   176  LYS176     -0.1314
     37  N         31.1110   97.7580   45.7790 N.am  177  THR177     -0.1951
     38  CA        31.2480   98.8810   46.6890 C.3   177  THR177      0.1897
     39  C         31.3100  100.1570   45.8500 C.2   177  THR177      0.2313
     40  O         31.6970  100.2070   44.6750 O.2   177  THR177     -0.2863
     41  CB        32.5120   98.7620   47.5500 C.3   177  THR177      0.1794
     42  OG1       33.6110   98.7780   46.6570 O.3   177  THR177     -0.2208
     43  CG2       32.5460   97.4860   48.3700 C.3   177  THR177      0.0378
     44  N         34.6350   99.2340   43.7200 N.3   186  GLY186     -0.1225
     45  CA        34.8100   98.1000   42.8340 C.3   186  GLY186      0.1811
     46  C         33.9060   96.8750   43.0890 C.2   186  GLY186      0.2280
     47  O         33.3120   96.7110   44.1580 O.2   186  GLY186     -0.2866
     48  N         33.4520   92.4730   43.2350 N.3   188  GLY188     -0.1225
     49  CA        34.2640   91.3690   43.7290 C.3   188  GLY188      0.1811
     50  C         34.3320   90.2150   42.7620 C.2   188  GLY188      0.2280
     51  O         34.9270   89.1650   43.0110 O.2   188  GLY188     -0.2866
     52  N         32.5370   84.3640   45.2900 N.3   199  PHE199     -0.1241
     53  CA        33.2880   85.0770   46.3020 C.3   199  PHE199      0.1605
     54  C         34.4140   84.2040   46.8690 C.2   199  PHE199      0.2264
     55  O         35.5510   84.6420   47.0020 O.2   199  PHE199     -0.2867
     56  CB        32.3300   85.4720   47.3840 C.3   199  PHE199      0.0534
     57  CG        32.9460   86.0910   48.6220 C.ar  199  PHE199     -0.0203
     58  CD1       33.1960   87.4500   48.6520 C.ar  199  PHE199     -0.0042
     59  CD2       33.2020   85.2910   49.7190 C.ar  199  PHE199     -0.0042
     60  CE1       33.6980   88.0070   49.8010 C.ar  199  PHE199     -0.0003
     61  CE2       33.7050   85.8720   50.8620 C.ar  199  PHE199     -0.0003
     62  CZ        33.9490   87.2230   50.9010 C.ar  199  PHE199     -0.0000
     63  N         37.9210   93.6230   43.6450 N.3   227  MET227     -0.1230
     64  CA        38.4110   94.1520   44.8860 C.3   227  MET227      0.1702
     65  C         37.8170   93.3670   46.0430 C.2   227  MET227      0.2592
     66  O         36.7930   92.7010   45.9090 O.2   227  MET227     -0.2718
     67  CB        38.0460   95.6350   44.9950 C.3   227  MET227      0.0401
     68  CG        36.6120   96.0960   45.2750 C.3   227  MET227      0.0596
     69  SD        35.9420   95.7350   46.9240 S.3   227  MET227     -0.1393
     70  CE        36.6760   97.0050   47.9030 C.3   227  MET227      0.0692
     71  N         38.4950   93.3360   47.1770 N.am  228  MET228     -0.1965
     72  CA        37.9880   92.7300   48.3910 C.3   228  MET228      0.1736
     73  C         38.2200   93.7360   49.5110 C.2   228  MET228      0.2616
     74  O         39.1740   94.5270   49.5050 O.2   228  MET228     -0.2715
     75  CB        38.7130   91.4280   48.7490 C.3   228  MET228      0.0427
     76  CG        38.3670   90.2150   47.8940 C.3   228  MET228      0.0599
     77  SD        36.7380   89.4910   48.2410 S.3   228  MET228     -0.1393
     78  CE        36.5030   88.4140   46.8400 C.3   228  MET228      0.0692
     79  N         37.2810   93.8010   50.4540 N.am  229  LEU229     -0.1977
     80  CA        37.4160   94.6660   51.6310 C.3   229  LEU229      0.1596
     81  C         38.4180   94.0430   52.6220 C.2   229  LEU229      0.2287
     82  O         38.5660   92.8100   52.5950 O.2   229  LEU229     -0.2864
     83  CB        36.0540   94.8150   52.3670 C.3   229  LEU229      0.0297
     84  CG        34.8740   95.4950   51.7020 C.3   229  LEU229      0.0022
     85  CD1       33.5630   95.1140   52.4260 C.3   229  LEU229      0.0001
     86  CD2       35.1550   96.9740   51.6880 C.3   229  LEU229      0.0001
     87  N         36.7660   91.2500   54.2640 N.3   232  ASP232     -0.1239
     88  CA        36.5870   90.1060   53.3460 C.3   232  ASP232      0.1674
     89  C         37.8030   89.1980   53.1890 C.2   232  ASP232      0.2266
     90  O         37.7560   87.9630   53.1760 O.2   232  ASP232     -0.2867
     91  CB        36.2640   90.5120   51.9110 C.3   232  ASP232      0.1410
     92  CG        34.9060   91.1640   51.6700 C.2   232  ASP232      0.3668
     93  OD1       33.9380   90.8520   52.3680 O.co2 232  ASP232     -0.2456
     94  OD2       34.8370   91.9760   50.7520 O.co2 232  ASP232     -0.2456
@<TRIPOS>BOND
     1    35    34    1
     2    35    36    1
     3    34    33    1
     4    33    32    1
     5    50    51    2
     6    50    49    1
     7    45    46    1
     8    45    44    1
     9    27    26    2
    10    32    29    1
    11    46    47    2
    12    48    49    1
    13    14    13    2
    14    25    26    1
    15    25    24    1
    16    26    28   am
    17    24    18   am
    18    63    64    1
    19    23    21    1
    20    28    29    1
    21    29    30    1
    22    13    16   am
    23    13    12    1
    24    17    18    1
    25    17    16    1
    26    17    20    1
    27    18    19    2
    28    40    39    2
    29    64    67    1
    30    64    65    1
    31    15    12    1
    32    67    68    1
    33    68    69    1
    34    52    53    1
    35    20    21    1
    36    12    11    1
    37    21    22    1
    38    30    37   am
    39    30    31    2
    40    37    38    1
    41    39    38    1
    42    66    65    2
    43    65    71   am
    44    53    54    1
    45    53    56    1
    46    42    41    1
    47    38    41    1
    48    78    77    1
    49    11     3   am
    50    54    55    2
    51     4     3    2
    52    69    70    1
    53    71    72    1
    54    56    57    1
    55     3     2    1
    56    41    43    1
    57    76    77    1
    58    76    75    1
    59    72    75    1
    60    72    73    1
    61    57    58   ar
    62    57    59   ar
    63    58    60   ar
    64     2     1    1
    65     2     5    1
    66    74    73    2
    67    73    79   am
    68    59    61   ar
    69     5     6    1
    70    60    62   ar
    71    79    80    1
    72    94    92   ar
    73    61    62   ar
    74     6     8   ar
    75     6     7   ar
    76     8    10   ar
    77    80    83    1
    78    80    81    1
    79    92    91    1
    80    92    93   ar
    81    86    84    1
    82    84    83    1
    83    84    85    1
    84    91    88    1
    85     7     9   ar
    86    10     9   ar
    87    82    81    2
    88    90    89    2
    89    89    88    1
    90    88    87    1
