@<TRIPOS>MOLECULE
tmp/1aerB01.pdb
 133 131 0 0 0
SMALL
GASTEIGER

@<TRIPOS>ATOM
      1  N         28.0190   87.4330   -3.6870 N.3    41  HIS41      -0.1226
      2  CA        27.3940   87.4130   -2.3850 C.3    41  HIS41       0.1752
      3  C         27.1180   88.8910   -2.0220 C.2    41  HIS41       0.2597
      4  O         28.0520   89.6560   -1.9940 O.2    41  HIS41      -0.2718
      5  CB        28.3430   86.8230   -1.3430 C.3    41  HIS41       0.0759
      6  CG        27.7330   86.7260    0.0270 C.ar   41  HIS41       0.0818
      7  ND1       26.7290   85.8240    0.3160 N.ar   41  HIS41      -0.2268
      8  CD2       27.9050   87.4730    1.1450 C.ar   41  HIS41       0.1154
      9  CE1       26.3010   86.0240    1.5500 C.ar   41  HIS41       0.1986
     10  NE2       26.9990   87.0150    2.0770 N.ar   41  HIS41      -0.2212
     11  N         25.8610   89.3220   -1.8410 N.am   42  GLY42      -0.1942
     12  CA        25.6180   90.7140   -1.4550 C.3    42  GLY42       0.2014
     13  C         25.4010   90.8060    0.0550 C.2    42  GLY42       0.2640
     14  O         24.6380   90.0020    0.6000 O.2    42  GLY42      -0.2714
     15  N         26.0510   91.7280    0.7600 N.am   43  THR43      -0.1936
     16  CA        25.8300   91.7910    2.1920 C.3    43  THR43       0.2028
     17  C         26.1010   93.2100    2.7420 C.2    43  THR43       0.2642
     18  O         26.3620   94.1140    1.9530 O.2    43  THR43      -0.2714
     19  CB        26.6690   90.7360    2.8910 C.3    43  THR43       0.1808
     20  OG1       26.3340   90.6810    4.2930 O.3    43  THR43      -0.2208
     21  CG2       28.1280   91.0590    2.7350 C.3    43  THR43       0.0379
     22  N         25.9910   93.4350    4.0600 N.am   44  PHE44      -0.1973
     23  CA        26.2160   94.7670    4.6140 C.3    44  PHE44       0.1639
     24  C         27.6650   95.0510    4.8290 C.2    44  PHE44       0.2290
     25  O         28.4510   94.1490    4.9400 O.2    44  PHE44      -0.2864
     26  CB        25.4000   95.0190    5.8800 C.3    44  PHE44       0.0560
     27  CG        25.5680   93.9690    6.9530 C.ar   44  PHE44      -0.0200
     28  CD1       24.9170   92.7250    6.8470 C.ar   44  PHE44      -0.0042
     29  CD2       26.3770   94.2070    8.0670 C.ar   44  PHE44      -0.0042
     30  CE1       25.0850   91.7480    7.8280 C.ar   44  PHE44      -0.0003
     31  CE2       26.5430   93.2300    9.0500 C.ar   44  PHE44      -0.0003
     32  CZ        25.8980   92.0020    8.9270 C.ar   44  PHE44      -0.0000
     33  N         29.9880   93.1200    7.2300 N.3    47  ALA47      -0.1245
     34  CA        29.9700   91.6800    7.0010 C.3    47  ALA47       0.1562
     35  C         30.9690   91.4490    5.8650 C.2    47  ALA47       0.2260
     36  O         31.7300   90.4660    5.8480 O.2    47  ALA47      -0.2867
     37  CB        28.5960   91.2240    6.5900 C.3    47  ALA47       0.0290
     38  N         34.3470   91.5390    7.3260 N.3    50  SER50      -0.1202
     39  CA        34.6170   90.2970    8.0390 C.3    50  SER50       0.2020
     40  C         35.0020   89.1840    7.0760 C.2    50  SER50       0.2618
     41  O         35.9850   88.4870    7.2950 O.2    50  SER50      -0.2717
     42  CB        33.3750   89.8560    8.8190 C.3    50  SER50       0.2103
     43  OG        33.5910   88.6440    9.5390 O.3    50  SER50      -0.2182
     44  N         34.2220   89.0140    6.0210 N.am   51  ILE51      -0.1979
     45  CA        34.4710   87.9740    5.0240 C.3    51  ILE51       0.1595
     46  C         35.7690   88.1300    4.2060 C.2    51  ILE51       0.2287
     47  O         36.5100   87.1650    3.9690 O.2    51  ILE51      -0.2864
     48  CB        33.2810   87.8960    4.0390 C.3    51  ILE51       0.0276
     49  CG1       31.9870   87.5790    4.7900 C.3    51  ILE51       0.0022
     50  CG2       33.5460   86.8540    2.9660 C.3    51  ILE51       0.0022
     51  CD1       30.7900   87.4890    3.8690 C.3    51  ILE51       0.0001
     52  N         37.5530   86.0550    6.7050 N.3    55  GLY55      -0.1210
     53  CA        37.2080   84.7840    6.0690 C.3    55  GLY55       0.1956
     54  C         35.7560   84.3150    6.2770 C.2    55  GLY55       0.2612
     55  O         35.1060   84.7310    7.2470 O.2    55  GLY55      -0.2717
     56  N         35.2350   83.4820    5.3630 N.am   56  VAL56      -0.1965
     57  CA        33.8850   82.9350    5.4810 C.3    56  VAL56       0.1727
     58  C         33.8840   81.8820    6.6090 C.2    56  VAL56       0.2616
     59  O         34.5380   80.8290    6.5280 O.2    56  VAL56      -0.2715
     60  CB        33.4220   82.2780    4.1800 C.3    56  VAL56       0.0290
     61  CG1       32.0950   81.5590    4.3990 C.3    56  VAL56       0.0023
     62  CG2       33.3360   83.3090    3.0550 C.3    56  VAL56       0.0023
     63  N         33.1680   82.2020    7.6830 N.am   57  ARG57      -0.1977
     64  CA        33.0890   81.3600    8.8590 C.3    57  ARG57       0.1597
     65  C         31.6190   81.2050    9.2190 C.2    57  ARG57       0.2287
     66  O         30.8360   82.1550    9.0990 O.2    57  ARG57      -0.2864
     67  CB        33.9000   81.9960   10.0170 C.3    57  ARG57       0.0334
     68  CG        35.4010   82.0040    9.7150 C.3    57  ARG57       0.0492
     69  CD        35.9590   80.6360   10.1220 C.3    57  ARG57       0.2205
     70  NE        37.4540   80.6990   10.0070 N.pl3  57  ARG57      -0.0865
     71  CZ        38.0650   80.5360    8.8340 C.cat  57  ARG57       0.5346
     72  NH1       37.4360   80.2190    7.7050 N.pl3  57  ARG57       0.1354
     73  NH2       39.3690   80.8640    8.7420 N.pl3  57  ARG57       0.1354
     74  N         28.3620   79.9130   11.7410 N.3    59  ARG59      -0.1245
     75  CA        27.9820   80.1470   13.1260 C.3    59  ARG59       0.1563
     76  C         27.9960   78.7980   13.8570 C.2    59  ARG59       0.2260
     77  O         27.7990   77.7430   13.2480 O.2    59  ARG59      -0.2867
     78  CB        26.5960   80.7620   13.1950 C.3    59  ARG59       0.0307
     79  CG        26.4480   82.1200   12.5110 C.3    59  ARG59       0.0489
     80  CD        24.9910   82.3640   12.1130 C.3    59  ARG59       0.2205
     81  NE        24.1310   82.0250   13.2310 N.pl3  59  ARG59      -0.0865
     82  CZ        23.0860   81.2050   13.1620 C.cat  59  ARG59       0.5346
     83  NH1       22.7460   80.6400   12.0000 N.pl3  59  ARG59       0.1354
     84  NH2       22.4370   80.8860   14.2880 N.pl3  59  ARG59       0.1354
     85  N         24.0740   76.8090    4.7990 N.3    69  GLY69      -0.1210
     86  CA        25.1170   76.9750    3.8230 C.3    69  GLY69       0.1956
     87  C         25.3220   78.4650    3.6120 C.2    69  GLY69       0.2612
     88  O         24.6970   79.2690    4.2820 O.2    69  GLY69      -0.2717
     89  N         26.2360   78.8200    2.7100 N.am   70  PHE70      -0.1962
     90  CA        26.5650   80.2060    2.3530 C.3    70  PHE70       0.1771
     91  C         25.9440   80.4480    0.9980 C.2    70  PHE70       0.2619
     92  O         26.3120   79.7780    0.0100 O.2    70  PHE70      -0.2715
     93  CB        28.0790   80.3630    2.2120 C.3    70  PHE70       0.0574
     94  CG        28.5540   81.7880    2.1210 C.ar   70  PHE70      -0.0200
     95  CD1       28.4250   82.6470    3.2080 C.ar   70  PHE70      -0.0042
     96  CD2       29.2400   82.2260    0.9990 C.ar   70  PHE70      -0.0042
     97  CE1       28.9870   83.9030    3.1860 C.ar   70  PHE70      -0.0003
     98  CE2       29.8070   83.4790    0.9640 C.ar   70  PHE70      -0.0003
     99  CZ        29.6840   84.3190    2.0640 C.ar   70  PHE70      -0.0000
    100  N         25.0210   81.4120    0.9580 N.am   71  TYR71      -0.1974
    101  CA        24.2870   81.7680   -0.2700 C.3    71  TYR71       0.1639
    102  C         24.9650   82.7720   -1.1970 C.2    71  TYR71       0.2290
    103  O         25.4360   83.8490   -0.7770 O.2    71  TYR71      -0.2864
    104  CB        22.8710   82.2750    0.0660 C.3    71  TYR71       0.0560
    105  CG        21.9130   81.2030    0.5390 C.ar   71  TYR71      -0.0198
    106  CD1       22.0420   80.6370    1.8150 C.ar   71  TYR71      -0.0009
    107  CD2       20.8550   80.7820   -0.2720 C.ar   71  TYR71      -0.0009
    108  CE1       21.1460   79.6820    2.2730 C.ar   71  TYR71       0.0417
    109  CE2       19.9360   79.8190    0.1790 C.ar   71  TYR71       0.0417
    110  CZ        20.0970   79.2770    1.4500 C.ar   71  TYR71       0.1957
    111  OH        19.2370   78.3060    1.8990 O.3    71  TYR71      -0.2866
    112  N         20.4660   94.9510    6.9110 N.3    85  ASP85      -0.1239
    113  CA        19.2690   94.3270    7.4640 C.3    85  ASP85       0.1674
    114  C         18.9430   95.1420    8.7290 C.2    85  ASP85       0.2266
    115  O         17.7920   95.1950    9.1940 O.2    85  ASP85      -0.2867
    116  CB        19.5370   92.8810    7.8110 C.3    85  ASP85       0.1410
    117  CG        19.7660   91.9970    6.6440 C.2    85  ASP85       0.3668
    118  OD1       19.3610   92.3480    5.4950 O.co2  85  ASP85      -0.2456
    119  OD2       20.3020   90.8570    6.8510 O.co2  85  ASP85      -0.2456
    120  N         28.8480   74.6360    4.2290 N.3   153  TRP153     -0.1241
    121  CA        29.7970   75.3850    5.0230 C.3   153  TRP153      0.1605
    122  C         31.2740   74.9260    4.9340 C.2   153  TRP153      0.2264
    123  O         32.1830   75.7660    4.9950 O.2   153  TRP153     -0.2867
    124  CB        29.3180   75.4640    6.4600 C.3   153  TRP153      0.0550
    125  CG        28.3840   76.5380    6.6640 C.ar  153  TRP153      0.0003
    126  CD1       27.1120   76.4210    7.1030 C.ar  153  TRP153      0.0946
    127  CD2       28.6260   77.9360    6.4820 C.ar  153  TRP153      0.0152
    128  NE1       26.5330   77.6580    7.2210 N.ar  153  TRP153     -0.2442
    129  CE2       27.4380   78.6150    6.8420 C.ar  153  TRP153      0.0810
    130  CE3       29.7300   78.6860    6.0630 C.ar  153  TRP153      0.0012
    131  CZ2       27.3110   80.0150    6.7880 C.ar  153  TRP153      0.0191
    132  CZ3       29.6150   80.0750    6.0130 C.ar  153  TRP153      0.0001
    133  CH2       28.4020   80.7270    6.3780 C.ar  153  TRP153      0.0015
@<TRIPOS>BOND
     1     1     2    1
     2     2     3    1
     3     2     5    1
     4     3     4    2
     5     3    11   am
     6    11    12    1
     7    12    13    1
     8     5     6    1
     9   102   103    2
    10   102   101    1
    11   107   109   ar
    12   107   105   ar
    13   101   104    1
    14   101   100    1
    15    92    91    2
    16     6     7   ar
    17     6     8   ar
    18    13    14    2
    19    13    15   am
    20   104   105    1
    21   109   110   ar
    22     7     9   ar
    23   105   106   ar
    24    15    16    1
    25   100    91   am
    26    98    96   ar
    27    98    99   ar
    28    91    90    1
    29    96    94   ar
    30     8    10   ar
    31   110   111    1
    32   110   108   ar
    33     9    10   ar
    34   106   108   ar
    35    18    17    2
    36    99    97   ar
    37    94    93    1
    38    94    95   ar
    39    16    17    1
    40    16    19    1
    41    93    90    1
    42    90    89    1
    43    89    87   am
    44    21    19    1
    45    17    22   am
    46    19    20    1
    47    50    48    1
    48    62    60    1
    49    97    95   ar
    50    87    86    1
    51    87    88    2
    52    86    85    1
    53    51    49    1
    54    47    46    2
    55    48    49    1
    56    48    45    1
    57    22    23    1
    58    60    61    1
    59    60    57    1
    60    46    45    1
    61   120   121    1
    62    23    24    1
    63    23    26    1
    64    24    25    2
    65   122   123    2
    66   122   121    1
    67   121   124    1
    68    45    44    1
    69    56    57    1
    70    56    54   am
    71    57    58    1
    72   118   117   ar
    73    36    35    2
    74    35    34    1
    75    26    27    1
    76   132   130   ar
    77   132   133   ar
    78    44    40   am
    79   130   127   ar
    80    53    54    1
    81    53    52    1
    82    54    55    2
    83   133   131   ar
    84   124   125    1
    85   127   125   ar
    86   127   129   ar
    87    59    58    2
    88    37    34    1
    89    58    63   am
    90   117   119   ar
    91   117   116    1
    92   125   126   ar
    93   131   129   ar
    94   129   128   ar
    95    28    27   ar
    96    28    30   ar
    97   112   113    1
    98    27    29   ar
    99    34    33    1
   100    40    41    2
   101    40    39    1
   102   126   128   ar
   103    38    39    1
   104   113   116    1
   105   113   114    1
   106    63    64    1
   107    72    71    1
   108    30    32   ar
   109    39    42    1
   110    29    31   ar
   111   114   115    2
   112    73    71    1
   113    42    43    1
   114    71    70    2
   115    64    65    1
   116    64    67    1
   117    32    31   ar
   118    66    65    2
   119    68    67    1
   120    68    69    1
   121    70    69    1
   122    74    75    1
   123    83    82    1
   124    80    79    1
   125    80    81    1
   126    79    78    1
   127    75    78    1
   128    75    76    1
   129    82    81    2
   130    82    84    1
   131    77    76    2
