@<TRIPOS>MOLECULE
tmp/1af0A00.pdb
 132 132 0 0 0
SMALL
GASTEIGER

@<TRIPOS>ATOM
      1  N         -9.3130   11.1910   26.7500 N.3    41  GLU41      -0.1245
      2  CA       -10.1840   11.9920   25.8830 C.3    41  GLU41       0.1567
      3  C         -9.5130   12.2010   24.5270 C.2    41  GLU41       0.2260
      4  O        -10.1410   12.6620   23.5740 O.2    41  GLU41      -0.2867
      5  CB       -10.4940   13.3440   26.5150 C.3    41  GLU41       0.0388
      6  CG       -11.5370   13.3720   27.6070 C.3    41  GLU41       0.1160
      7  CD       -12.8580   12.7200   27.2630 C.2    41  GLU41       0.3649
      8  OE1      -13.3800   12.9260   26.1460 O.co2  41  GLU41      -0.2457
      9  OE2      -13.3880   11.9800   28.1230 O.co2  41  GLU41      -0.2457
     10  N        -12.1770   25.4630   41.4320 N.3   133  ALA133     -0.1231
     11  CA       -11.5970   25.9150   40.1710 C.3   133  ALA133      0.1694
     12  C        -12.0650   24.9990   39.0400 C.2   133  ALA133      0.2592
     13  O        -12.5650   23.9060   39.3170 O.2   133  ALA133     -0.2718
     14  CB       -10.0710   25.8370   40.2490 C.3   133  ALA133      0.0304
     15  N        -11.8740   25.4530   37.8040 N.am  134  TYR134     -0.1962
     16  CA       -12.2510   24.6210   36.6640 C.3   134  TYR134      0.1771
     17  C        -11.4730   25.0390   35.4250 C.2   134  TYR134      0.2619
     18  O        -10.8250   26.0860   35.3830 O.2   134  TYR134     -0.2715
     19  CB       -13.7530   24.5900   36.4010 C.3   134  TYR134      0.0574
     20  CG       -14.3900   25.9500   36.2460 C.ar  134  TYR134     -0.0198
     21  CD1      -14.4590   26.5900   35.0170 C.ar  134  TYR134     -0.0009
     22  CD2      -14.9160   26.5780   37.3770 C.ar  134  TYR134     -0.0009
     23  CE1      -15.0430   27.8440   34.9130 C.ar  134  TYR134      0.0417
     24  CE2      -15.5080   27.8280   37.2750 C.ar  134  TYR134      0.0417
     25  CZ       -15.5660   28.4410   36.0430 C.ar  134  TYR134      0.1957
     26  OH       -16.1600   29.6790   35.9570 O.3   134  TYR134     -0.2866
     27  N        -11.5150   24.1870   34.4080 N.am  135  ALA135     -0.1963
     28  CA       -10.7790   24.4780   33.1800 C.3   135  ALA135      0.1728
     29  C        -11.3640   23.6670   32.0240 C.2   135  ALA135      0.2616
     30  O        -12.0830   22.7030   32.2690 O.2   135  ALA135     -0.2715
     31  CB        -9.3100   24.1170   33.3740 C.3   135  ALA135      0.0334
     32  N        -11.0320   24.0750   30.8010 N.am  136  PHE136     -0.1960
     33  CA       -11.5140   23.4060   29.5990 C.3   136  PHE136      0.1771
     34  C        -10.3710   22.7570   28.8220 C.2   136  PHE136      0.2619
     35  O         -9.3470   23.3820   28.5650 O.2   136  PHE136     -0.2715
     36  CB       -12.2300   24.4070   28.6760 C.3   136  PHE136      0.0574
     37  CG       -13.3270   25.1540   29.4290 C.ar  136  PHE136     -0.0200
     38  CD1      -14.5260   24.5210   29.7050 C.ar  136  PHE136     -0.0042
     39  CD2      -13.1190   26.4360   29.8890 C.ar  136  PHE136     -0.0042
     40  CE1      -15.4950   25.1880   30.4370 C.ar  136  PHE136     -0.0003
     41  CE2      -14.0750   27.0990   30.6390 C.ar  136  PHE136     -0.0003
     42  CZ       -15.2640   26.4600   30.9200 C.ar  136  PHE136     -0.0000
     43  N        -10.5830   21.5070   28.4540 N.am  137  LEU137     -0.1977
     44  CA        -9.5840   20.7730   27.6830 C.3   137  LEU137      0.1596
     45  C         -9.4280   21.4150   26.3070 C.2   137  LEU137      0.2287
     46  O        -10.2920   22.1510   25.8280 O.2   137  LEU137     -0.2864
     47  CB       -10.0730   19.3320   27.5380 C.3   137  LEU137      0.0297
     48  CG        -9.5760   18.3430   28.6010 C.3   137  LEU137      0.0022
     49  CD1       -9.9920   18.7920   29.9910 C.3   137  LEU137      0.0001
     50  CD2      -10.1260   16.9520   28.3210 C.3   137  LEU137      0.0001
     51  N         -2.9710   21.3450   38.6620 N.3   175  HIS175     -0.1226
     52  CA        -4.0780   20.4890   38.2340 C.3   175  HIS175      0.1752
     53  C         -4.8530   21.1540   37.1030 C.2   175  HIS175      0.2595
     54  O         -5.1150   20.5380   36.0720 O.2   175  HIS175     -0.2718
     55  CB        -4.9920   20.2550   39.4370 C.3   175  HIS175      0.0759
     56  CG        -6.2190   19.4300   39.2500 C.ar  175  HIS175      0.0818
     57  ND1       -6.3670   18.1610   39.7640 N.ar  175  HIS175     -0.2268
     58  CD2       -7.3910   19.6930   38.6170 C.ar  175  HIS175      0.1154
     59  CE1       -7.5620   17.6730   39.4540 C.ar  175  HIS175      0.1986
     60  NE2       -8.2080   18.5960   38.7570 N.ar  175  HIS175     -0.2212
     61  N         -5.2650   22.4110   37.2690 N.am  176  GLU176     -0.1979
     62  CA        -6.0540   23.0470   36.2200 C.3   176  GLU176      0.1602
     63  C         -5.2480   23.1660   34.9320 C.2   176  GLU176      0.2287
     64  O         -5.7840   23.0130   33.8390 O.2   176  GLU176     -0.2864
     65  CB        -6.5800   24.4240   36.6110 C.3   176  GLU176      0.0415
     66  CG        -7.5210   24.4260   37.8070 C.3   176  GLU176      0.1163
     67  CD        -8.5850   23.3570   37.7670 C.2   176  GLU176      0.3649
     68  OE1       -9.1540   23.1170   36.6770 O.co2 176  GLU176     -0.2457
     69  OE2       -8.8880   22.7680   38.8320 O.co2 176  GLU176     -0.2457
     70  N         -5.4720   20.0800   33.0250 N.3   179  HIS179     -0.1241
     71  CA        -6.6790   19.9510   32.2050 C.3   179  HIS179      0.1621
     72  C         -6.4960   20.7500   30.9140 C.2   179  HIS179      0.2264
     73  O         -6.8260   20.2850   29.8270 O.2   179  HIS179     -0.2867
     74  CB        -7.8930   20.4900   32.9660 C.3   179  HIS179      0.0745
     75  CG        -8.4390   19.6120   34.0460 C.ar  179  HIS179      0.0817
     76  ND1       -8.5810   18.2450   33.9340 N.ar  179  HIS179     -0.2268
     77  CD2       -8.9520   19.9420   35.2620 C.ar  179  HIS179      0.1154
     78  CE1       -9.1190   17.7550   35.0430 C.ar  179  HIS179      0.1986
     79  NE2       -9.3540   18.7700   35.8550 N.ar  179  HIS179     -0.2212
     80  N         -7.3680   14.4650   31.8210 N.3   184  SER184     -0.1202
     81  CA        -8.6300   14.4220   32.5660 C.3   184  SER184      0.2020
     82  C         -8.3490   13.9430   33.9890 C.2   184  SER184      0.2618
     83  O         -7.1930   13.6720   34.3170 O.2   184  SER184     -0.2717
     84  CB        -9.4760   13.3150   31.8980 C.3   184  SER184      0.2103
     85  OG        -9.8310   13.7580   30.6000 O.3   184  SER184     -0.2182
     86  N         -9.3690   13.7010   34.8130 N.am  185  HIS185     -0.1975
     87  CA        -9.0670   13.0850   36.1130 C.3   185  HIS185      0.1656
     88  C         -8.8060   11.6090   35.7780 C.2   185  HIS185      0.2291
     89  O         -9.2270   11.1700   34.7000 O.2   185  HIS185     -0.2864
     90  CB       -10.2520   13.1420   37.0780 C.3   185  HIS185      0.0771
     91  CG       -10.6660   14.5570   37.3330 C.ar  185  HIS185      0.0820
     92  ND1      -11.9830   14.9630   37.3480 N.ar  185  HIS185     -0.2267
     93  CD2       -9.9270   15.6640   37.5750 C.ar  185  HIS185      0.1154
     94  CE1      -12.0370   16.2650   37.5750 C.ar  185  HIS185      0.1986
     95  NE2      -10.8060   16.7150   37.7240 N.ar  185  HIS185     -0.2212
     96  N        -15.4040   11.1150   37.1910 N.3   189  TYR189     -0.1227
     97  CA       -15.9480   11.8940   38.2830 C.3   189  TYR189      0.1736
     98  C        -15.5220   13.3530   38.0670 C.2   189  TYR189      0.2595
     99  O        -14.5120   13.5910   37.3870 O.2   189  TYR189     -0.2718
    100  CB       -15.5250   11.3560   39.6510 C.3   189  TYR189      0.0548
    101  CG       -14.0360   11.1530   39.8250 C.ar  189  TYR189     -0.0200
    102  CD1      -13.2070   12.2290   40.1180 C.ar  189  TYR189     -0.0009
    103  CD2      -13.4530    9.8960   39.6910 C.ar  189  TYR189     -0.0009
    104  CE1      -11.8460   12.0870   40.2750 C.ar  189  TYR189      0.0417
    105  CE2      -12.0830    9.7440   39.8390 C.ar  189  TYR189      0.0417
    106  CZ       -11.2910   10.8300   40.1270 C.ar  189  TYR189      0.1957
    107  OH        -9.9330   10.7060   40.2970 O.3   189  TYR189     -0.2866
    108  N        -16.2790   14.2650   38.6420 N.am  190  ASN190     -0.1960
    109  CA       -16.0650   15.7080   38.5670 C.3   190  ASN190      0.1819
    110  C        -16.8620   16.3820   39.6810 C.2   190  ASN190      0.2621
    111  O        -17.9690   15.9380   40.0060 O.2   190  ASN190     -0.2715
    112  CB       -16.5280   16.2120   37.2020 C.3   190  ASN190      0.1195
    113  CG       -16.1830   17.6500   36.8910 C.2   190  ASN190      0.2630
    114  OD1      -15.0130   18.0380   36.9040 O.2   190  ASN190     -0.2716
    115  ND2      -17.1950   18.4560   36.5760 N.am  190  ASN190     -0.0877
    116  N        -16.3130   17.4340   40.2790 N.am  191  ALA191     -0.1977
    117  CA       -17.0320   18.1210   41.3520 C.3   191  ALA191      0.1597
    118  C        -18.3510   18.6970   40.8440 C.2   191  ALA191      0.2287
    119  O        -18.4510   19.1440   39.7010 O.2   191  ALA191     -0.2864
    120  CB       -16.1700   19.2130   41.9650 C.3   191  ALA191      0.0319
    121  N         -8.5370   13.1810   42.8080 N.3   215  TYR215     -0.1241
    122  CA        -9.1740   13.9340   43.8880 C.3   215  TYR215      0.1605
    123  C         -8.9130   13.2250   45.2240 C.2   215  TYR215      0.2264
    124  O         -9.1130   13.8020   46.2940 O.2   215  TYR215     -0.2867
    125  CB       -10.6960   13.8870   43.6830 C.3   215  TYR215      0.0534
    126  CG       -11.3480   14.8920   42.7710 C.ar  215  TYR215     -0.0201
    127  CD1      -10.6600   15.9400   42.1830 C.ar  215  TYR215     -0.0009
    128  CD2      -12.7120   14.7820   42.4910 C.ar  215  TYR215     -0.0009
    129  CE1      -11.2840   16.8510   41.3470 C.ar  215  TYR215      0.0417
    130  CE2      -13.3530   15.6900   41.6690 C.ar  215  TYR215      0.0417
    131  CZ       -12.6350   16.7230   41.1050 C.ar  215  TYR215      0.1957
    132  OH       -13.2640   17.6250   40.2720 O.3   215  TYR215     -0.2866
@<TRIPOS>BOND
     1     4     3    2
     2     3     2    1
     3    46    45    2
     4     2     5    1
     5     2     1    1
     6     8     7   ar
     7    45    44    1
     8     5     6    1
     9     7     6    1
    10     7     9   ar
    11    47    44    1
    12    47    48    1
    13    44    43    1
    14    50    48    1
    15    43    34   am
    16    35    34    2
    17    48    49    1
    18    36    37    1
    19    36    33    1
    20    34    33    1
    21    37    38   ar
    22    37    39   ar
    23    33    32    1
    24    38    40   ar
    25    73    72    2
    26    39    41   ar
    27    40    42   ar
    28    85    84    1
    29    41    42   ar
    30    32    29   am
    31    72    71    1
    32    80    81    1
    33    84    81    1
    34    29    30    2
    35    29    28    1
    36    71    74    1
    37    71    70    1
    38    81    82    1
    39    74    75    1
    40    28    31    1
    41    28    27    1
    42    64    63    2
    43    76    75   ar
    44    76    78   ar
    45    82    83    2
    46    82    86   am
    47    75    77   ar
    48    27    17   am
    49    89    88    2
    50    86    87    1
    51    23    21   ar
    52    23    25   ar
    53    63    62    1
    54    21    20   ar
    55    78    79   ar
    56    77    79   ar
    57    18    17    2
    58    17    16    1
    59    88    87    1
    60    26    25    1
    61    25    24   ar
    62    54    53    2
    63    87    90    1
    64    62    65    1
    65    62    61    1
    66    20    19    1
    67    20    22   ar
    68    19    16    1
    69   115   113   am
    70    65    66    1
    71    16    15    1
    72    68    67   ar
    73   113   114    2
    74   113   112    1
    75    90    91    1
    76    53    61   am
    77    53    52    1
    78    96    97    1
    79   112   109    1
    80    24    22   ar
    81    91    92   ar
    82    91    93   ar
    83    92    94   ar
    84    99    98    2
    85    93    95   ar
    86    94    95   ar
    87    67    66    1
    88    67    69   ar
    89    15    12   am
    90    98    97    1
    91    98   108   am
    92    52    51    1
    93    52    55    1
    94    97   100    1
    95   109   108    1
    96   109   110    1
    97    58    60   ar
    98    58    56   ar
    99    60    59   ar
   100    12    13    2
   101    12    11    1
   102    56    55    1
   103    56    57   ar
   104    59    57   ar
   105   100   101    1
   106   110   111    2
   107   110   116   am
   108   103   101   ar
   109   103   105   ar
   110   119   118    2
   111   101   102   ar
   112   105   106   ar
   113   102   104   ar
   114   106   104   ar
   115   106   107    1
   116    11    14    1
   117    11    10    1
   118   132   131    1
   119   116   117    1
   120   118   117    1
   121   131   129   ar
   122   131   130   ar
   123   129   127   ar
   124   117   120    1
   125   130   128   ar
   126   127   126   ar
   127   128   126   ar
   128   126   125    1
   129   121   122    1
   130   125   122    1
   131   122   123    1
   132   123   124    2
