@<TRIPOS>MOLECULE
tmp/1af6A00.pdb
 131 122 0 0 0
SMALL
GASTEIGER

@<TRIPOS>ATOM
      1  N         10.1450   36.1520   76.4340 N.3     6  TYR6       -0.1241
      2  CA        11.2650   35.4960   77.0580 C.3     6  TYR6        0.1605
      3  C         10.7150   34.3470   77.9040 C.2     6  TYR6        0.2264
      4  O          9.6630   34.5290   78.5340 O.2     6  TYR6       -0.2867
      5  CB        12.0530   36.5050   77.9800 C.3     6  TYR6        0.0534
      6  CG        13.0430   35.6780   78.8100 C.ar    6  TYR6       -0.0201
      7  CD1       12.6570   35.1280   80.0240 C.ar    6  TYR6       -0.0009
      8  CD2       14.3210   35.4240   78.3440 C.ar    6  TYR6       -0.0009
      9  CE1       13.5180   34.3490   80.7730 C.ar    6  TYR6        0.0417
     10  CE2       15.1980   34.6430   79.0950 C.ar    6  TYR6        0.0417
     11  CZ        14.7910   34.1030   80.2910 C.ar    6  TYR6        0.1957
     12  OH        15.6580   33.3200   81.0410 O.3     6  TYR6       -0.2866
     13  N         12.0550   30.6440   80.4160 N.3     8  ARG8       -0.1245
     14  CA        12.9800   29.6120   80.8610 C.3     8  ARG8        0.1563
     15  C         12.1830   28.6040   81.6940 C.2     8  ARG8        0.2260
     16  O         11.2450   28.9960   82.3860 O.2     8  ARG8       -0.2867
     17  CB        14.1510   30.1640   81.6720 C.3     8  ARG8        0.0307
     18  CG        13.7930   30.8410   82.9800 C.3     8  ARG8        0.0489
     19  CD        15.0360   31.1400   83.8060 C.3     8  ARG8        0.2205
     20  NE        14.7260   31.9490   84.9880 N.pl3   8  ARG8       -0.0865
     21  CZ        14.6380   33.2720   84.9850 C.cat   8  ARG8        0.5346
     22  NH1       14.8480   33.9650   83.8660 N.pl3   8  ARG8        0.1354
     23  NH2       14.3700   33.9120   86.1060 N.pl3   8  ARG8        0.1354
     24  N         23.9130   32.5720   86.4090 N.3    33  ARG33      -0.1245
     25  CA        22.6510   31.8950   86.1360 C.3    33  ARG33       0.1563
     26  C         22.7380   30.5190   85.5270 C.2    33  ARG33       0.2260
     27  O         21.8010   29.7190   85.7160 O.2    33  ARG33      -0.2867
     28  CB        21.7770   32.8540   85.3090 C.3    33  ARG33       0.0307
     29  CG        22.0630   32.8810   83.8330 C.3    33  ARG33       0.0489
     30  CD        21.4690   34.1360   83.1700 C.3    33  ARG33       0.2205
     31  NE        20.0250   33.9950   83.0270 N.pl3  33  ARG33      -0.0865
     32  CZ        19.2060   34.9430   82.5870 C.cat  33  ARG33       0.5346
     33  NH1       19.6830   36.1140   82.2270 N.pl3  33  ARG33       0.1354
     34  NH2       17.9000   34.7150   82.4930 N.pl3  33  ARG33       0.1354
     35  N         10.0350   31.0320   84.4060 N.3    41  TYR41      -0.1241
     36  CA         9.7380   32.4530   84.2570 C.3    41  TYR41       0.1605
     37  C          9.4250   32.7070   82.7880 C.2    41  TYR41       0.2264
     38  O         10.1230   32.2090   81.9010 O.2    41  TYR41      -0.2867
     39  CB        10.8940   33.3450   84.7590 C.3    41  TYR41       0.0534
     40  CG        10.5320   34.8100   84.5690 C.ar   41  TYR41      -0.0201
     41  CD1        9.7100   35.4600   85.4910 C.ar   41  TYR41      -0.0009
     42  CD2       10.9850   35.5200   83.4720 C.ar   41  TYR41      -0.0009
     43  CE1        9.3400   36.7810   85.3090 C.ar   41  TYR41       0.0417
     44  CE2       10.6110   36.8490   83.2780 C.ar   41  TYR41       0.0417
     45  CZ         9.7940   37.4700   84.1980 C.ar   41  TYR41       0.1957
     46  OH         9.4250   38.7900   84.0180 O.3    41  TYR41      -0.2866
     47  N          7.6200   35.6730   79.8830 N.3    43  GLU43      -0.1245
     48  CA         6.9790   36.9160   79.4920 C.3    43  GLU43       0.1567
     49  C          6.3420   36.7010   78.1270 C.2    43  GLU43       0.2260
     50  O          7.0010   36.2900   77.1640 O.2    43  GLU43      -0.2867
     51  CB         8.0050   38.0680   79.4020 C.3    43  GLU43       0.0388
     52  CG         8.4700   38.4810   80.7900 C.3    43  GLU43       0.1160
     53  CD         9.5660   39.5140   80.7910 C.2    43  GLU43       0.3649
     54  OE1        9.9310   40.0140   79.7240 O.co2  43  GLU43      -0.2457
     55  OE2       10.0660   39.8260   81.8920 O.co2  43  GLU43      -0.2457
     56  N          3.0380   43.8220   83.1350 N.3    82  ARG82      -0.1245
     57  CA         4.1810   44.7110   83.1500 C.3    82  ARG82       0.1563
     58  C          4.1900   45.7670   82.0680 C.2    82  ARG82       0.2260
     59  O          4.8250   46.8110   82.2820 O.2    82  ARG82      -0.2867
     60  CB         5.4840   43.8730   83.1050 C.3    82  ARG82       0.0307
     61  CG         5.5440   42.8520   84.2290 C.3    82  ARG82       0.0489
     62  CD         6.8980   42.1550   84.3130 C.3    82  ARG82       0.2205
     63  NE         7.9680   43.0470   84.7010 N.pl3  82  ARG82      -0.0865
     64  CZ         9.2390   42.7290   84.8960 C.cat  82  ARG82       0.5346
     65  NH1        9.6780   41.4880   84.7610 N.pl3  82  ARG82       0.1354
     66  NH2       10.1110   43.6720   85.2320 N.pl3  82  ARG82       0.1354
     67  N          9.0290   48.6070   79.2980 N.3   106  PHE106     -0.1241
     68  CA        10.4170   48.2520   79.5830 C.3   106  PHE106      0.1605
     69  C         11.2850   49.2700   78.8090 C.2   106  PHE106      0.2264
     70  O         11.2370   49.3120   77.5830 O.2   106  PHE106     -0.2867
     71  CB        10.6830   46.8370   79.0600 C.3   106  PHE106      0.0534
     72  CG        10.1970   45.7040   79.9140 C.ar  106  PHE106     -0.0203
     73  CD1        9.5510   45.9110   81.1320 C.ar  106  PHE106     -0.0042
     74  CD2       10.3960   44.3940   79.4800 C.ar  106  PHE106     -0.0042
     75  CE1        9.1190   44.8490   81.8940 C.ar  106  PHE106     -0.0003
     76  CE2        9.9720   43.3250   80.2550 C.ar  106  PHE106     -0.0003
     77  CZ         9.3250   43.5470   81.4590 C.ar  106  PHE106     -0.0000
     78  N         16.4040   49.1270   78.7550 N.3   109  ARG109     -0.1245
     79  CA        17.0460   48.4580   79.8830 C.3   109  ARG109      0.1563
     80  C         18.4510   48.0030   79.5340 C.2   109  ARG109      0.2260
     81  O         18.6620   47.4910   78.4480 O.2   109  ARG109     -0.2867
     82  CB        16.2150   47.2040   80.2660 C.3   109  ARG109      0.0307
     83  CG        14.7510   47.6020   80.5560 C.3   109  ARG109      0.0489
     84  CD        13.9920   46.4520   81.1900 C.3   109  ARG109      0.2205
     85  NE        13.9290   45.2900   80.3230 N.pl3 109  ARG109     -0.0865
     86  CZ        13.5280   44.0660   80.6240 C.cat 109  ARG109      0.5346
     87  NH1       13.0940   43.7610   81.8350 N.pl3 109  ARG109      0.1354
     88  NH2       13.5370   43.1050   79.6950 N.pl3 109  ARG109      0.1354
     89  N         22.1710   37.7960   84.9280 N.3   116  ASP116     -0.1239
     90  CA        20.8110   38.3100   84.8920 C.3   116  ASP116      0.1674
     91  C         20.6820   39.5840   85.7330 C.2   116  ASP116      0.2266
     92  O         19.8500   39.6660   86.6330 O.2   116  ASP116     -0.2867
     93  CB        19.8540   37.2310   85.4460 C.3   116  ASP116      0.1410
     94  CG        18.4050   37.4670   85.0650 C.2   116  ASP116      0.3668
     95  OD1       18.0890   38.3610   84.2610 O.co2 116  ASP116     -0.2456
     96  OD2       17.5220   36.7350   85.5560 O.co2 116  ASP116     -0.2456
     97  N         20.3110   43.7070   85.9070 N.3   118  TYR118     -0.1241
     98  CA        19.9830   44.9700   85.2720 C.3   118  TYR118      0.1605
     99  C         20.6640   46.0890   86.0590 C.2   118  TYR118      0.2264
    100  O         20.5450   46.1270   87.2840 O.2   118  TYR118     -0.2867
    101  CB        18.4660   45.1710   85.2100 C.3   118  TYR118      0.0534
    102  CG        17.8390   44.1990   84.2190 C.ar  118  TYR118     -0.0201
    103  CD1       17.6660   42.8590   84.5470 C.ar  118  TYR118     -0.0009
    104  CD2       17.4610   44.6270   82.9670 C.ar  118  TYR118     -0.0009
    105  CE1       17.1080   41.9750   83.6460 C.ar  118  TYR118      0.0417
    106  CE2       16.9070   43.7510   82.0470 C.ar  118  TYR118      0.0417
    107  CZ        16.7290   42.4350   82.3920 C.ar  118  TYR118      0.1957
    108  OH        16.1700   41.5660   81.4880 O.3   118  TYR118     -0.2866
    109  N         17.7460   50.4080   84.7090 N.3   121  ASP121     -0.1239
    110  CA        16.3640   50.0360   84.4280 C.3   121  ASP121      0.1674
    111  C         15.3930   50.9330   85.1750 C.2   121  ASP121      0.2266
    112  O         15.2220   50.7870   86.3900 O.2   121  ASP121     -0.2867
    113  CB        16.1830   48.5720   84.8040 C.3   121  ASP121      0.1410
    114  CG        14.8220   48.0160   84.4290 C.2   121  ASP121      0.3668
    115  OD1       13.9930   48.7600   83.8580 O.co2 121  ASP121     -0.2456
    116  OD2       14.5940   46.8250   84.7310 O.co2 121  ASP121     -0.2456
    117  N         12.1680   51.0950   84.1650 N.3   123  SER123     -0.1217
    118  CA        10.9000   50.6280   83.6460 C.3   123  SER123      0.1889
    119  C          9.7440   50.8110   84.6390 C.2   123  SER123      0.2288
    120  O          9.8650   50.5800   85.8330 O.2   123  SER123     -0.2866
    121  CB        10.9720   49.1390   83.2870 C.3   123  SER123      0.2089
    122  OG        11.9720   48.9020   82.3310 O.3   123  SER123     -0.2183
    123  N         19.2730   50.9870   90.1920 N.3   244  LYS244     -0.1245
    124  CA        19.1850   50.7970   88.7500 C.3   244  LYS244      0.1561
    125  C         18.4560   51.9670   88.0960 C.2   244  LYS244      0.2260
    126  O         18.2160   51.9650   86.8870 O.2   244  LYS244     -0.2867
    127  CB        18.4940   49.4840   88.3680 C.3   244  LYS244      0.0271
    128  CG        18.7380   48.3030   89.2710 C.3   244  LYS244      0.0035
    129  CD        17.9250   47.0770   88.8970 C.3   244  LYS244      0.0206
    130  CE        18.1240   45.9340   89.8880 C.3   244  LYS244      0.1093
    131  NZ        19.5250   45.4170   89.8910 N.3   244  LYS244     -0.1314
@<TRIPOS>BOND
     1     1     2    1
     2     2     3    1
     3     2     5    1
     4    50    49    2
     5    70    69    2
     6     3     4    2
     7     5     6    1
     8    49    48    1
     9     8     6   ar
    10     8    10   ar
    11    81    80    2
    12    78    79    1
    13    69    68    1
    14     6     7   ar
    15    71    68    1
    16    71    72    1
    17    10    11   ar
    18    67    68    1
    19    51    48    1
    20    51    52    1
    21    74    72   ar
    22    74    76   ar
    23    48    47    1
    24    80    79    1
    25    88    86    1
    26    54    53   ar
    27    79    82    1
    28    72    73   ar
    29     7     9   ar
    30    76    77   ar
    31    82    83    1
    32    11     9   ar
    33    11    12    1
    34    85    86    2
    35    85    84    1
    36    13    14    1
    37    83    84    1
    38    86    87    1
    39    52    53    1
    40    53    55   ar
    41    14    17    1
    42    14    15    1
    43    73    75   ar
    44    77    75   ar
    45   108   107    1
    46    17    18    1
    47    15    16    2
    48    38    37    2
    49   106   107   ar
    50   106   104   ar
    51    58    59    2
    52    58    57    1
    53    33    32    1
    54   122   121    1
    55   107   105   ar
    56    34    32    1
    57    32    31    2
    58    37    36    1
    59   104   102   ar
    60    18    19    1
    61    31    30    1
    62    60    57    1
    63    60    61    1
    64    56    57    1
    65    30    29    1
    66    44    42   ar
    67    44    45   ar
    68   121   118    1
    69    42    40   ar
    70   105   103   ar
    71   118   117    1
    72   118   119    1
    73    19    20    1
    74    29    28    1
    75   115   114   ar
    76    22    21    1
    77    46    45    1
    78    45    43   ar
    79   102   103   ar
    80   102   101    1
    81    61    62    1
    82    36    35    1
    83    36    39    1
    84    95    94   ar
    85    62    63    1
    86   110   109    1
    87   110   113    1
    88   110   111    1
    89   114   116   ar
    90   114   113    1
    91    40    39    1
    92    40    41   ar
    93   119   120    2
    94    63    64    2
    95    65    64    1
    96    90    89    1
    97    90    93    1
    98    90    91    1
    99    64    66    1
   100    21    20    2
   101    21    23    1
   102    94    93    1
   103    94    96   ar
   104   111   112    2
   105   101    98    1
   106    98    97    1
   107    98    99    1
   108    43    41   ar
   109    28    25    1
   110    26    27    2
   111    26    25    1
   112    91    92    2
   113    99   100    2
   114    25    24    1
   115   126   125    2
   116   125   124    1
   117   127   124    1
   118   127   128    1
   119   124   123    1
   120   129   128    1
   121   129   130    1
   122   130   131    1
