@<TRIPOS>MOLECULE
tmp/1af7A00.pdb
 200 192 0 0 0
SMALL
GASTEIGER

@<TRIPOS>ATOM
      1  N         20.2570   29.7010   55.4740 N.3    28  ALA28      -0.1245
      2  CA        20.7970   29.1240   54.2530 C.3    28  ALA28       0.1562
      3  C         19.9510   28.0300   53.6360 C.2    28  ALA28       0.2260
      4  O         20.3330   27.4820   52.5980 O.2    28  ALA28      -0.2867
      5  CB        22.2070   28.5920   54.5150 C.3    28  ALA28       0.0290
      6  N         19.6360   25.0950   54.5320 N.3    30  ILE30      -0.1245
      7  CA        20.2610   23.8050   54.7720 C.3    30  ILE30       0.1561
      8  C         19.5460   23.0200   55.8650 C.2    30  ILE30       0.2260
      9  O         19.3160   23.5290   56.9640 O.2    30  ILE30      -0.2867
     10  CB        21.7470   23.9830   55.1630 C.3    30  ILE30       0.0252
     11  CG1       22.5170   24.6150   54.0020 C.3    30  ILE30       0.0019
     12  CG2       22.3710   22.6430   55.5240 C.3    30  ILE30       0.0019
     13  CD1       23.9060   25.0660   54.3640 C.3    30  ILE30       0.0001
     14  N         28.2240   24.1280   56.0140 N.3    80  THR80      -0.1203
     15  CA        27.9480   23.7420   54.6490 C.3    80  THR80       0.1994
     16  C         28.7290   22.4530   54.3350 C.2    80  THR80       0.2619
     17  O         29.6520   22.0840   55.0680 O.2    80  THR80      -0.2717
     18  CB        28.3970   24.8290   53.6660 C.3    80  THR80       0.1784
     19  OG1       29.7500   25.1700   53.9570 O.3    80  THR80      -0.2211
     20  CG2       27.5300   26.0710   53.7660 C.3    80  THR80       0.0376
     21  N         28.3620   21.7990   53.2290 N.am   81  THR81      -0.1938
     22  CA        29.0020   20.5860   52.7390 C.3    81  THR81       0.2028
     23  C         29.4850   20.9330   51.3280 C.2    81  THR81       0.2642
     24  O         28.6860   21.1350   50.4110 O.2    81  THR81      -0.2714
     25  CB        27.9970   19.4350   52.6740 C.3    81  THR81       0.1808
     26  OG1       27.3940   19.2680   53.9640 O.3    81  THR81      -0.2208
     27  CG2       28.7000   18.1450   52.2440 C.3    81  THR81       0.0379
     28  N         30.8000   20.9420   51.1590 N.am   82  ASN82      -0.1957
     29  CA        31.4330   21.3410   49.9100 C.3    82  ASN82       0.1819
     30  C         32.0450   20.2720   49.0050 C.2    82  ASN82       0.2621
     31  O         32.8040   20.6180   48.1000 O.2    82  ASN82      -0.2715
     32  CB        32.5330   22.3540   50.2310 C.3    82  ASN82       0.1195
     33  CG        32.1220   23.3240   51.3030 C.2    82  ASN82       0.2630
     34  OD1       31.3140   24.2210   51.0780 O.2    82  ASN82      -0.2716
     35  ND2       32.6460   23.1340   52.4820 N.am   82  ASN82      -0.0877
     36  N         31.7280   19.0040   49.2240 N.am   83  LEU83      -0.1963
     37  CA        32.3020   17.9320   48.4150 C.3    83  LEU83       0.1728
     38  C         32.1350   18.1860   46.9140 C.2    83  LEU83       0.2617
     39  O         31.0180   18.3690   46.4360 O.2    83  LEU83      -0.2715
     40  CB        31.6900   16.5880   48.8180 C.3    83  LEU83       0.0311
     41  CG        32.4770   15.3510   48.3610 C.3    83  LEU83       0.0022
     42  CD1       33.9260   15.4460   48.8080 C.3    83  LEU83       0.0001
     43  CD2       31.8240   14.0830   48.9110 C.3    83  LEU83       0.0001
     44  N         33.2420   18.1580   46.1750 N.am   84  THR84      -0.1937
     45  CA        33.2190   18.4220   44.7430 C.3    84  THR84       0.2028
     46  C         34.4400   17.7990   44.0970 C.2    84  THR84       0.2642
     47  O         35.2870   17.2360   44.7890 O.2    84  THR84      -0.2714
     48  CB        33.2250   19.9640   44.4660 C.3    84  THR84       0.1808
     49  OG1       33.0100   20.2380   43.0610 O.3    84  THR84      -0.2208
     50  CG2       34.5400   20.5680   44.9320 C.3    84  THR84       0.0379
     51  N         34.5400   17.9220   42.7780 N.am   85  ALA85      -0.1977
     52  CA        35.6500   17.3610   42.0060 C.3    85  ALA85       0.1597
     53  C         35.7110   17.9740   40.6120 C.2    85  ALA85       0.2287
     54  O         34.7160   18.4830   40.1180 O.2    85  ALA85      -0.2864
     55  CB        35.4810   15.8520   41.8750 C.3    85  ALA85       0.0319
     56  N         33.1640   16.5500   37.4850 N.3    88  ARG88      -0.1245
     57  CA        32.1960   15.6820   38.1480 C.3    88  ARG88       0.1563
     58  C         31.0290   15.6420   37.1530 C.2    88  ARG88       0.2260
     59  O         30.7950   16.6350   36.4760 O.2    88  ARG88      -0.2867
     60  CB        31.7530   16.3220   39.4670 C.3    88  ARG88       0.0307
     61  CG        30.9120   15.4280   40.3480 C.3    88  ARG88       0.0489
     62  CD        30.4620   16.1430   41.5920 C.3    88  ARG88       0.2205
     63  NE        29.7120   15.2450   42.4660 N.pl3  88  ARG88      -0.0865
     64  CZ        29.3510   15.5290   43.7140 C.cat  88  ARG88       0.5346
     65  NH1       29.6700   16.6930   44.2630 N.pl3  88  ARG88       0.1354
     66  NH2       28.6440   14.6490   44.4100 N.pl3  88  ARG88       0.1354
     67  N         26.0390   28.1700   39.9520 N.3   112  ALA112     -0.1231
     68  CA        25.3640   28.5380   41.2000 C.3   112  ALA112      0.1694
     69  C         25.8670   27.9320   42.5180 C.2   112  ALA112      0.2592
     70  O         25.4470   28.3450   43.5890 O.2   112  ALA112     -0.2718
     71  CB        23.8830   28.3100   41.0540 C.3   112  ALA112      0.0304
     72  N         26.7500   26.9450   42.4490 N.am  113  ALA113     -0.1966
     73  CA        27.3100   26.3480   43.6620 C.3   113  ALA113      0.1728
     74  C         28.7130   25.9280   43.2890 C.2   113  ALA113      0.2616
     75  O         28.9730   24.7610   43.0530 O.2   113  ALA113     -0.2715
     76  CB        26.5000   25.1540   44.0990 C.3   113  ALA113      0.0334
     77  N         29.6180   26.8960   43.2580 N.am  114  ALA114     -0.1963
     78  CA        31.0080   26.7060   42.8570 C.3   114  ALA114      0.1728
     79  C         31.9320   25.9210   43.7740 C.2   114  ALA114      0.2616
     80  O         32.9060   25.3140   43.3030 O.2   114  ALA114     -0.2715
     81  CB        31.6390   28.0760   42.5580 C.3   114  ALA114      0.0334
     82  N         31.6380   25.9480   45.0740 N.am  115  SER115     -0.1950
     83  CA        32.4620   25.3200   46.0830 C.3   115  SER115      0.1924
     84  C         33.8940   25.8410   45.9440 C.2   115  SER115      0.2314
     85  O         34.0940   27.0490   45.7740 O.2   115  SER115     -0.2863
     86  CB        32.4080   23.8020   45.9850 C.3   115  SER115      0.2116
     87  OG        33.0550   23.2340   47.1030 O.3   115  SER115     -0.2180
     88  N         34.1200   23.0430   39.7380 N.3   119  GLU119     -0.1245
     89  CA        33.0830   23.1050   38.7150 C.3   119  GLU119      0.1567
     90  C         33.2780   24.3070   37.7750 C.2   119  GLU119      0.2260
     91  O         33.2390   24.1330   36.5670 O.2   119  GLU119     -0.2867
     92  CB        31.6860   23.0790   39.3450 C.3   119  GLU119      0.0388
     93  CG        30.5550   23.2270   38.3370 C.3   119  GLU119      0.1160
     94  CD        29.2250   23.1740   38.9940 C.2   119  GLU119      0.3649
     95  OE1       28.8470   22.0670   39.3880 O.co2 119  GLU119     -0.2457
     96  OE2       28.5610   24.2160   39.1430 O.co2 119  GLU119     -0.2457
     97  N         28.8150   31.1130   45.5510 N.3   144  ASP144     -0.1225
     98  CA        28.5840   30.1460   46.6000 C.3   144  ASP144      0.1805
     99  C         28.2580   30.9920   47.8150 C.2   144  ASP144      0.2598
    100  O         28.5740   32.1630   47.8490 O.2   144  ASP144     -0.2718
    101  CB        29.8690   29.3580   46.8640 C.3   144  ASP144      0.1424
    102  CG        29.6170   28.0650   47.6130 C.2   144  ASP144      0.3668
    103  OD1       29.2340   28.1020   48.7910 O.co2 144  ASP144     -0.2456
    104  OD2       29.7880   27.0010   47.0070 O.co2 144  ASP144     -0.2456
    105  N         27.6060   30.4130   48.8010 N.am  145  ILE145     -0.1966
    106  CA        27.2800   31.1340   50.0300 C.3   145  ILE145      0.1727
    107  C         28.4660   31.1220   51.0260 C.2   145  ILE145      0.2616
    108  O         28.5790   31.9850   51.9020 O.2   145  ILE145     -0.2715
    109  CB        26.0320   30.5230   50.7130 C.3   145  ILE145      0.0290
    110  CG1       25.5250   31.4700   51.7980 C.3   145  ILE145      0.0022
    111  CG2       26.3420   29.1100   51.2690 C.3   145  ILE145      0.0023
    112  CD1       24.4370   30.9190   52.6410 C.3   145  ILE145      0.0001
    113  N         29.3810   30.1810   50.8130 N.am  146  ASP146     -0.1971
    114  CA        30.5370   29.9530   51.6690 C.3   146  ASP146      0.1709
    115  C         31.7450   30.7230   51.1420 C.2   146  ASP146      0.2293
    116  O         32.2260   30.4790   50.0200 O.2   146  ASP146     -0.2864
    117  CB        30.7970   28.4290   51.7090 C.3   146  ASP146      0.1436
    118  CG        31.8510   28.0090   52.7000 C.2   146  ASP146      0.3671
    119  OD1       32.8780   28.6670   52.8610 O.co2 146  ASP146     -0.2456
    120  OD2       31.6790   26.9510   53.3080 O.co2 146  ASP146     -0.2456
    121  N         26.7470   34.4590   46.7860 N.3   201  VAL201     -0.1231
    122  CA        25.3340   34.6580   46.5750 C.3   201  VAL201      0.1692
    123  C         24.6420   33.5530   47.3550 C.2   201  VAL201      0.2592
    124  O         25.0540   32.4030   47.2920 O.2   201  VAL201     -0.2718
    125  CB        24.9600   34.5730   45.0740 C.3   201  VAL201      0.0266
    126  CG1       23.4690   34.7260   44.9000 C.3   201  VAL201      0.0020
    127  CG2       25.6930   35.6560   44.2560 C.3   201  VAL201      0.0020
    128  N         23.6770   33.9270   48.1820 N.am  202  ASN202     -0.1960
    129  CA        22.9170   32.9740   48.9670 C.3   202  ASN202      0.1819
    130  C         21.6880   32.6890   48.1070 C.2   202  ASN202      0.2621
    131  O         20.9490   33.5960   47.7380 O.2   202  ASN202     -0.2715
    132  CB        22.5320   33.6040   50.3200 C.3   202  ASN202      0.1195
    133  CG        21.6690   32.6960   51.1700 C.2   202  ASN202      0.2630
    134  OD1       21.1960   31.6550   50.7140 O.2   202  ASN202     -0.2716
    135  ND2       21.4410   33.0940   52.4010 N.am  202  ASN202     -0.0877
    136  N         21.5010   31.4450   47.7270 N.am  203  LEU203     -0.1963
    137  CA        20.3770   31.0870   46.8820 C.3   203  LEU203      0.1728
    138  C         18.9900   31.3960   47.4540 C.2   203  LEU203      0.2616
    139  O         18.0250   31.4590   46.7110 O.2   203  LEU203     -0.2715
    140  CB        20.4810   29.6080   46.5080 C.3   203  LEU203      0.0311
    141  CG        21.0600   29.1880   45.1590 C.3   203  LEU203      0.0022
    142  CD1       21.9630   30.2550   44.5960 C.3   203  LEU203      0.0001
    143  CD2       21.7590   27.8230   45.3200 C.3   203  LEU203      0.0001
    144  N         18.8720   31.5550   48.7660 N.am  204  LEU204     -0.1977
    145  CA        17.5730   31.8680   49.3510 C.3   204  LEU204      0.1596
    146  C         17.1760   33.3460   49.2270 C.2   204  LEU204      0.2287
    147  O         16.1310   33.7420   49.7490 O.2   204  LEU204     -0.2864
    148  CB        17.5030   31.4520   50.8230 C.3   204  LEU204      0.0297
    149  CG        17.3810   29.9890   51.2430 C.3   204  LEU204      0.0022
    150  CD1       16.0000   29.6910   51.7490 C.3   204  LEU204      0.0001
    151  CD2       17.7740   29.0750   50.1060 C.3   204  LEU204      0.0001
    152  N         24.2760   22.1560   40.4200 N.3   220  ARG220     -0.1231
    153  CA        24.4680   20.7700   40.7570 C.3   220  ARG220      0.1694
    154  C         24.8700   20.4690   42.1850 C.2   220  ARG220      0.2592
    155  O         25.7180   21.1440   42.7760 O.2   220  ARG220     -0.2718
    156  CB        25.4940   20.1540   39.8140 C.3   220  ARG220      0.0321
    157  CG        25.3050   20.5350   38.3740 C.3   220  ARG220      0.0489
    158  CD        26.1780   19.7010   37.4540 C.3   220  ARG220      0.2205
    159  NE        27.5690   19.8400   37.8250 N.pl3 220  ARG220     -0.0865
    160  CZ        28.5770   19.2550   37.2050 C.cat 220  ARG220      0.5346
    161  NH1       28.3460   18.4810   36.1680 N.pl3 220  ARG220      0.1354
    162  NH2       29.8100   19.4230   37.6580 N.pl3 220  ARG220      0.1354
    163  N         24.2500   19.4160   42.7180 N.am  221  ASN221     -0.1960
    164  CA        24.5070   18.9000   44.0550 C.3   221  ASN221      0.1819
    165  C         24.4390   19.8820   45.2130 C.2   221  ASN221      0.2621
    166  O         25.3080   19.8940   46.0690 O.2   221  ASN221     -0.2715
    167  CB        25.8330   18.1430   44.0440 C.3   221  ASN221      0.1195
    168  CG        25.8570   17.0540   43.0080 C.2   221  ASN221      0.2630
    169  OD1       26.5980   17.1140   42.0460 O.2   221  ASN221     -0.2716
    170  ND2       24.9860   16.0890   43.1570 N.am  221  ASN221     -0.0877
    171  N         23.3970   20.7050   45.2370 N.am  222  VAL222     -0.1977
    172  CA        23.1870   21.6830   46.3060 C.3   222  VAL222      0.1596
    173  C         21.7300   21.6440   46.7330 C.2   222  VAL222      0.2287
    174  O         21.4090   21.7270   47.9170 O.2   222  VAL222     -0.2864
    175  CB        23.5880   23.1250   45.8920 C.3   222  VAL222      0.0276
    176  CG1       22.9420   23.5000   44.5720 C.3   222  VAL222      0.0022
    177  CG2       23.2010   24.1200   46.9860 C.3   222  VAL222      0.0022
    178  N         20.4930   19.6590   49.7610 N.3   225  TYR225     -0.1227
    179  CA        20.5460   20.1040   51.1540 C.3   225  TYR225      0.1736
    180  C         19.3340   20.9200   51.5460 C.2   225  TYR225      0.2595
    181  O         19.1970   21.2960   52.7060 O.2   225  TYR225     -0.2718
    182  CB        21.7880   20.9480   51.3900 C.3   225  TYR225      0.0548
    183  CG        23.0380   20.2150   51.0190 C.ar  225  TYR225     -0.0200
    184  CD1       23.3760   19.0270   51.6520 C.ar  225  TYR225     -0.0009
    185  CD2       23.8620   20.6740   49.9950 C.ar  225  TYR225     -0.0009
    186  CE1       24.4990   18.3080   51.2830 C.ar  225  TYR225      0.0417
    187  CE2       24.9950   19.9600   49.6140 C.ar  225  TYR225      0.0417
    188  CZ        25.3060   18.7770   50.2690 C.ar  225  TYR225      0.1957
    189  OH        26.4460   18.0750   49.9320 O.3   225  TYR225     -0.2866
    190  N         18.4650   21.2030   50.5790 N.am  226  PHE226     -0.1976
    191  CA        17.2690   22.0050   50.7990 C.3   226  PHE226      0.1639
    192  C         16.0190   21.1390   50.7410 C.2   226  PHE226      0.2290
    193  O         16.0710   19.9780   50.3200 O.2   226  PHE226     -0.2864
    194  CB        17.1490   23.0880   49.7130 C.3   226  PHE226      0.0560
    195  CG        18.3680   23.9590   49.5620 C.ar  226  PHE226     -0.0200
    196  CD1       19.2250   24.1830   50.6200 C.ar  226  PHE226     -0.0042
    197  CD2       18.6450   24.5700   48.3430 C.ar  226  PHE226     -0.0042
    198  CE1       20.3430   24.9990   50.4740 C.ar  226  PHE226     -0.0003
    199  CE2       19.7730   25.3980   48.1830 C.ar  226  PHE226     -0.0003
    200  CZ        20.6150   25.6080   49.2480 C.ar  226  PHE226     -0.0000
@<TRIPOS>BOND
     1   161   160    1
     2    59    58    2
     3    91    90    2
     4    58    57    1
     5   160   162    1
     6   160   159    2
     7   158   159    1
     8   158   157    1
     9    56    57    1
    10    90    89    1
    11    57    60    1
    12    93    94    1
    13    93    92    1
    14   157   156    1
    15    89    92    1
    16    89    88    1
    17    94    96   ar
    18    94    95   ar
    19    60    61    1
    20   156   153    1
    21    67    68    1
    22    54    53    2
    23    61    62    1
    24   152   153    1
    25    53    52    1
    26   153   154    1
    27    71    68    1
    28    68    69    1
    29    62    63    1
    30    55    52    1
    31    52    51    1
    32   169   168    2
    33   154   163   am
    34   154   155    2
    35    72    69   am
    36    72    73    1
    37    63    64    2
    38    69    70    2
    39    81    78    1
    40   163   164    1
    41    51    46   am
    42    78    77    1
    43    78    79    1
    44   168   170   am
    45   168   167    1
    46    75    74    2
    47    49    48    1
    48    77    74   am
    49    74    73    1
    50    80    79    2
    51    73    76    1
    52    64    65    1
    53    64    66    1
    54    79    82   am
    55   167   164    1
    56   164   165    1
    57    46    45    1
    58    46    47    2
    59   127   125    1
    60    48    45    1
    61    48    50    1
    62   176   175    1
    63   142   141    1
    64    45    44    1
    65   126   125    1
    66   125   122    1
    67    82    83    1
    68   141   143    1
    69   141   140    1
    70   165   171   am
    71   165   166    2
    72   171   172    1
    73    97    98    1
    74    85    84    2
    75   175   172    1
    76   175   177    1
    77    84    83    1
    78    86    83    1
    79    86    87    1
    80    44    38   am
    81   172   173    1
    82    39    38    2
    83   140   137    1
    84   122   121    1
    85   122   123    1
    86    98   101    1
    87    98    99    1
    88   139   138    2
    89   173   174    2
    90   101   102    1
    91   137   138    1
    92   137   136    1
    93    38    37    1
    94   104   102   ar
    95   124   123    2
    96   123   128   am
    97   138   144   am
    98   102   103   ar
    99   136   130   am
   100   131   130    2
   101    99   100    2
   102    99   105   am
   103    31    30    2
   104   130   129    1
   105   128   129    1
   106   199   197   ar
   107   199   200   ar
   108   197   195   ar
   109    41    42    1
   110    41    40    1
   111    41    43    1
   112    37    40    1
   113    37    36    1
   114   144   145    1
   115   105   106    1
   116   129   132    1
   117    30    36   am
   118    30    29    1
   119   146   145    1
   120   146   147    2
   121   200   198   ar
   122   145   148    1
   123   195   194    1
   124   195   196   ar
   125   187   185   ar
   126   187   188   ar
   127   194   191    1
   128   178   179    1
   129    29    32    1
   130    29    28    1
   131   189   188    1
   132   185   183   ar
   133   116   115    2
   134   106   109    1
   135   106   107    1
   136   151   149    1
   137    32    33    1
   138   188   186   ar
   139   132   133    1
   140   193   192    2
   141    24    23    2
   142   198   196   ar
   143   190   191    1
   144   190   180   am
   145   109   111    1
   146   109   110    1
   147   134   133    2
   148   192   191    1
   149   113   107   am
   150   113   114    1
   151   148   149    1
   152   183   182    1
   153   183   184   ar
   154   107   108    2
   155    34    33    2
   156   115   114    1
   157   179   182    1
   158   179   180    1
   159    28    23   am
   160   133   135   am
   161   149   150    1
   162   186   184   ar
   163    33    35   am
   164    23    22    1
   165   180   181    2
   166   114   117    1
   167   117   118    1
   168   110   112    1
   169    27    25    1
   170     4     3    2
   171    25    22    1
   172    25    26    1
   173   118   119   ar
   174   118   120   ar
   175    22    21    1
   176    21    16   am
   177     3     2    1
   178    18    20    1
   179    18    19    1
   180    18    15    1
   181    11    13    1
   182    11    10    1
   183     2     5    1
   184     2     1    1
   185    16    15    1
   186    16    17    2
   187     6     7    1
   188    15    14    1
   189     7    10    1
   190     7     8    1
   191    10    12    1
   192     8     9    2
