@<TRIPOS>MOLECULE
tmp/1afcB00.pdb
 97 90 0 0 0
SMALL
GASTEIGER

@<TRIPOS>ATOM
      1  N         70.1880   27.5730   10.0350 N.3     9  ASN9       -0.1240
      2  CA        70.9440   27.1970    8.8370 C.3     9  ASN9        0.1653
      3  C         70.4400   27.8180    7.5550 C.2     9  ASN9        0.2266
      4  O         69.9230   28.9270    7.5510 O.2     9  ASN9       -0.2867
      5  CB        71.0280   25.6830    8.6840 C.3     9  ASN9        0.1155
      6  CG        72.4220   25.2930    9.1230 C.2     9  ASN9        0.2627
      7  OD1       73.2870   26.1450    9.2620 O.2     9  ASN9       -0.2716
      8  ND2       72.6960   24.0330    9.3870 N.am    9  ASN9       -0.0877
      9  N         71.7080   20.0720    8.1940 N.3   103  LYS103     -0.1231
     10  CA        72.9750   20.5310    7.6070 C.3   103  LYS103      0.1693
     11  C         72.7390   21.6660    6.6210 C.2   103  LYS103      0.2592
     12  O         71.6190   21.8940    6.1800 O.2   103  LYS103     -0.2718
     13  CB        73.6320   19.3860    6.8990 C.3   103  LYS103      0.0285
     14  CG        73.9420   18.2630    7.8540 C.3   103  LYS103      0.0035
     15  CD        74.9060   17.3490    7.1700 C.3   103  LYS103      0.0206
     16  CE        76.1020   18.1590    6.7620 C.3   103  LYS103      0.1093
     17  NZ        76.4980   17.8430    5.3980 N.3   103  LYS103     -0.1314
     18  N         73.6880   22.5350    6.3580 N.am  104  LYS104     -0.1966
     19  CA        73.3680   23.6300    5.4550 C.3   104  LYS104      0.1728
     20  C         72.8640   23.1570    4.0690 C.2   104  LYS104      0.2616
     21  O         72.0470   23.8390    3.4390 O.2   104  LYS104     -0.2715
     22  CB        74.5860   24.5650    5.3230 C.3   104  LYS104      0.0311
     23  CG        74.3950   25.7140    4.3800 C.3   104  LYS104      0.0038
     24  CD        73.5670   26.7530    5.0420 C.3   104  LYS104      0.0206
     25  CE        73.9050   28.1520    4.5680 C.3   104  LYS104      0.1093
     26  NZ        73.2140   29.1730    5.4430 N.3   104  LYS104     -0.1314
     27  N         72.8050   21.8290    3.8890 N.am  105  ASN105     -0.1972
     28  CA        72.3360   21.2640    2.6530 C.3   105  ASN105      0.1688
     29  C         70.9910   20.5980    2.7880 C.2   105  ASN105      0.2292
     30  O         70.7190   19.6100    2.1390 O.2   105  ASN105     -0.2864
     31  CB        73.3960   20.2810    2.1970 C.3   105  ASN105      0.1181
     32  CG        73.3350   18.9220    2.8350 C.2   105  ASN105      0.2629
     33  OD1       72.6670   18.6940    3.8390 O.2   105  ASN105     -0.2716
     34  ND2       74.0540   17.9780    2.2500 N.am  105  ASN105     -0.0877
     35  N         70.0770   18.1430    4.7530 N.3   107  ARG107     -0.1245
     36  CA        69.9600   16.8640    5.3600 C.3   107  ARG107      0.1563
     37  C         70.0950   17.0170    6.8750 C.2   107  ARG107      0.2260
     38  O         70.6940   17.9960    7.3590 O.2   107  ARG107     -0.2867
     39  CB        71.0710   16.0200    4.8020 C.3   107  ARG107      0.0307
     40  CG        70.7360   14.5370    4.8070 C.3   107  ARG107      0.0489
     41  CD        71.9760   13.6770    5.0940 C.3   107  ARG107      0.2205
     42  NE        73.0690   14.0670    4.2300 N.pl3 107  ARG107     -0.0865
     43  CZ        74.2100   14.5190    4.7780 C.cat 107  ARG107      0.5346
     44  NH1       74.3840   14.4080    6.1230 N.pl3 107  ARG107      0.1354
     45  NH2       75.2180   14.9140    3.9550 N.pl3 107  ARG107      0.1354
     46  N         71.4250   16.3880   10.8340 N.3   109  LYS109     -0.1231
     47  CA        72.7050   16.0380   11.4420 C.3   109  LYS109      0.1693
     48  C         72.5680   14.8570   12.4070 C.2   109  LYS109      0.2591
     49  O         71.4500   14.4680   12.7600 O.2   109  LYS109     -0.2718
     50  CB        73.2840   17.2050   12.2210 C.3   109  LYS109      0.0285
     51  CG        73.9140   18.2780   11.3580 C.3   109  LYS109      0.0035
     52  CD        74.8050   19.1510   12.2100 C.3   109  LYS109      0.0206
     53  CE        76.2570   18.8520   11.9190 C.3   109  LYS109      0.1093
     54  NZ        77.1470   19.7280   12.6880 N.3   109  LYS109     -0.1314
     55  N         73.5760   13.9800   12.3850 N.am  110  LEU110     -0.1980
     56  CA        73.5080   12.8450   13.2610 C.3   110  LEU110      0.1596
     57  C         73.5380   13.3400   14.7130 C.2   110  LEU110      0.2287
     58  O         74.2630   14.2700   15.0610 O.2   110  LEU110     -0.2864
     59  CB        74.6340   11.8790   12.9120 C.3   110  LEU110      0.0297
     60  CG        74.2610   10.8150   11.8940 C.3   110  LEU110      0.0022
     61  CD1       75.4660    9.9970   11.4790 C.3   110  LEU110      0.0001
     62  CD2       73.2020    9.8920   12.4500 C.3   110  LEU110      0.0001
     63  N         77.1230   14.5770   16.1370 N.3   113  ARG113     -0.1245
     64  CA        77.8720   15.7130   15.6010 C.3   113  ARG113      0.1563
     65  C         77.1900   17.0520   15.9150 C.2   113  ARG113      0.2260
     66  O         77.2960   17.9950   15.1080 O.2   113  ARG113     -0.2867
     67  CB        78.0570   15.5850   14.1040 C.3   113  ARG113      0.0307
     68  CG        78.6600   14.2610   13.7280 C.3   113  ARG113      0.0489
     69  CD        79.7510   14.4640   12.6820 C.3   113  ARG113      0.2205
     70  NE        79.4710   13.5460   11.5860 N.pl3 113  ARG113     -0.0865
     71  CZ        80.4310   12.9340   10.8820 C.cat 113  ARG113      0.5346
     72  NH1       81.5820   13.5570   10.6430 N.pl3 113  ARG113      0.1354
     73  NH2       80.0280   12.0890    9.9340 N.pl3 113  ARG113      0.1354
     74  N         76.5750   20.0260   18.6780 N.3   115  HIS115     -0.1241
     75  CA        77.1650   20.5170   19.8940 C.3   115  HIS115      0.1621
     76  C         76.6670   21.8900   20.1760 C.2   115  HIS115      0.2264
     77  O         76.3370   22.6520   19.2690 O.2   115  HIS115     -0.2867
     78  CB        78.6940   20.5310   19.7500 C.3   115  HIS115      0.0745
     79  CG        79.3370   21.6050   18.8430 C.ar  115  HIS115      0.0817
     80  ND1       80.0230   21.2940   17.7450 N.ar  115  HIS115     -0.2268
     81  CD2       79.5190   22.9570   19.1070 C.ar  115  HIS115      0.1154
     82  CE1       80.6080   22.4130   17.3430 C.ar  115  HIS115      0.1986
     83  NE2       80.3090   23.4150   18.1540 N.ar  115  HIS115     -0.2212
     84  N         76.7740   25.8810   17.3670 N.3   118  GLN118     -0.1245
     85  CA        76.6480   26.0570   15.9080 C.3   118  GLN118      0.1566
     86  C         75.1980   26.2560   15.4360 C.2   118  GLN118      0.2260
     87  O         74.3080   25.5320   15.9320 O.2   118  GLN118     -0.2867
     88  CB        77.2570   24.8540   15.2250 C.3   118  GLN118      0.0367
     89  CG        77.2590   23.6240   16.1030 C.3   118  GLN118      0.0905
     90  CD        77.0760   22.3470   15.3130 C.2   118  GLN118      0.2608
     91  OE1       76.1780   21.5880   15.6300 O.2   118  GLN118     -0.2717
     92  NE2       77.8660   22.0970   14.2490 N.am  118  GLN118     -0.0878
     93  N         73.4560   24.9660   13.3070 N.3   120  ALA120     -0.1245
     94  CA        72.6270   23.8260   13.0540 C.3   120  ALA120      0.1562
     95  C         71.5060   23.5630   14.0570 C.2   120  ALA120      0.2260
     96  O         70.4280   23.1040   13.6830 O.2   120  ALA120     -0.2867
     97  CB        73.5120   22.6100   12.9890 C.3   120  ALA120      0.0290
@<TRIPOS>BOND
     1    30    29    2
     2    31    28    1
     3    31    32    1
     4    34    32   am
     5    28    29    1
     6    28    27    1
     7    32    33    2
     8    21    20    2
     9    27    20   am
    10    45    43    1
    11    20    19    1
    12    42    43    2
    13    42    41    1
    14    23    24    1
    15    23    22    1
    16    25    24    1
    17    25    26    1
    18    35    36    1
    19    43    44    1
    20    39    40    1
    21    39    36    1
    22    40    41    1
    23    22    19    1
    24    36    37    1
    25    17    16    1
    26    19    18    1
    27    12    11    2
    28    18    11   am
    29    11    10    1
    30    16    15    1
    31    37    38    2
    32    13    10    1
    33    13    14    1
    34    15    14    1
    35     4     3    2
    36     3     2    1
    37    10     9    1
    38     5     2    1
    39     5     6    1
    40     2     1    1
    41     6     7    2
    42     6     8   am
    43    73    71    1
    44    72    71    1
    45    46    47    1
    46    71    70    2
    47    51    52    1
    48    51    50    1
    49    47    50    1
    50    47    48    1
    51    61    60    1
    52    70    69    1
    53    60    62    1
    54    60    59    1
    55    53    52    1
    56    53    54    1
    57    55    48   am
    58    55    56    1
    59    48    49    2
    60    69    68    1
    61    59    56    1
    62    97    94    1
    63    94    93    1
    64    94    95    1
    65    56    57    1
    66    96    95    2
    67    68    67    1
    68    67    64    1
    69    92    90   am
    70    57    58    2
    71    66    65    2
    72    88    85    1
    73    88    89    1
    74    90    91    2
    75    90    89    1
    76    86    85    1
    77    86    87    2
    78    64    65    1
    79    64    63    1
    80    85    84    1
    81    82    80   ar
    82    82    83   ar
    83    80    79   ar
    84    83    81   ar
    85    74    75    1
    86    79    81   ar
    87    79    78    1
    88    77    76    2
    89    78    75    1
    90    75    76    1
