@<TRIPOS>MOLECULE
tmp/1afeB02.pdb
 144 142 0 0 0
SMALL
GASTEIGER

@<TRIPOS>ATOM
      1  N         22.9050   -7.1070   18.5380 N.3    43  HIS43      -0.1241
      2  CA        22.7100   -8.4410   18.0670 C.3    43  HIS43       0.1621
      3  C         21.9350   -8.5840   16.7390 C.2    43  HIS43       0.2264
      4  O         21.9400   -9.6550   16.1300 O.2    43  HIS43      -0.2867
      5  CB        22.1710   -9.3500   19.1090 C.3    43  HIS43       0.0745
      6  CG        20.7150   -9.1920   19.2530 C.ar   43  HIS43       0.0817
      7  ND1       20.1640   -8.4140   20.2700 N.ar   43  HIS43      -0.2268
      8  CD2       19.6930   -9.7950   18.5770 C.ar   43  HIS43       0.1154
      9  CE1       18.8270   -8.5220   20.1700 C.ar   43  HIS43       0.1986
     10  NE2       18.5100   -9.3480   19.1650 N.ar   43  HIS43      -0.2212
     11  N         26.3780  -11.2530   15.4520 N.3    47  TYR47      -0.1241
     12  CA        26.1090  -12.3890   16.3250 C.3    47  TYR47       0.1605
     13  C         26.7710  -13.6670   15.8110 C.2    47  TYR47       0.2264
     14  O         26.1280  -14.5250   15.2330 O.2    47  TYR47      -0.2867
     15  CB        24.6040  -12.5830   16.5620 C.3    47  TYR47       0.0534
     16  CG        24.3580  -13.4620   17.7320 C.ar   47  TYR47      -0.0201
     17  CD1       24.8210  -13.0830   18.9950 C.ar   47  TYR47      -0.0009
     18  CD2       23.7880  -14.7200   17.5710 C.ar   47  TYR47      -0.0009
     19  CE1       24.6430  -13.8980   20.1070 C.ar   47  TYR47       0.0417
     20  CE2       23.6300  -15.5670   18.6640 C.ar   47  TYR47       0.0417
     21  CZ        24.0480  -15.1430   19.9320 C.ar   47  TYR47       0.1957
     22  OH        23.9130  -15.9840   21.0190 O.3    47  TYR47      -0.2866
     23  N         25.8730  -17.3770   15.3700 N.3    50  TRP50      -0.1241
     24  CA        24.9420  -17.7800   14.3040 C.3    50  TRP50       0.1605
     25  C         25.4580  -17.3940   12.9790 C.2    50  TRP50       0.2264
     26  O         24.7340  -17.3890   11.9950 O.2    50  TRP50      -0.2867
     27  CB        23.5710  -17.1660   14.4420 C.3    50  TRP50       0.0550
     28  CG        22.8320  -17.6920   15.5880 C.ar   50  TRP50       0.0003
     29  CD1       23.1800  -18.7490   16.3740 C.ar   50  TRP50       0.0946
     30  CD2       21.6450  -17.1450   16.1380 C.ar   50  TRP50       0.0152
     31  NE1       22.2510  -18.9260   17.3860 N.ar   50  TRP50      -0.2442
     32  CE2       21.2890  -17.9610   17.2530 C.ar   50  TRP50       0.0810
     33  CE3       20.8250  -16.0530   15.7780 C.ar   50  TRP50       0.0012
     34  CZ2       20.1380  -17.6980   17.9940 C.ar   50  TRP50       0.0191
     35  CZ3       19.6870  -15.8070   16.5080 C.ar   50  TRP50       0.0001
     36  CH2       19.3410  -16.6210   17.5930 C.ar   50  TRP50       0.0015
     37  N         25.0220  -10.7980   26.2090 N.3    96  LEU96      -0.1245
     38  CA        24.4220   -9.6750   25.4500 C.3    96  LEU96       0.1561
     39  C         24.4920   -8.3480   26.2060 C.2    96  LEU96       0.2260
     40  O         23.6960   -7.4340   25.9780 O.2    96  LEU96      -0.2867
     41  CB        22.9360   -9.9270   24.9990 C.3    96  LEU96       0.0270
     42  CG        22.7930  -10.9500   23.8750 C.3    96  LEU96       0.0019
     43  CD1       21.3930  -10.8980   23.2490 C.3    96  LEU96       0.0001
     44  CD2       23.8960  -10.8020   22.8080 C.3    96  LEU96       0.0001
     45  N         20.9930  -16.8040   33.3480 N.3   173  ILE173     -0.1245
     46  CA        21.9620  -15.8840   32.7460 C.3   173  ILE173      0.1561
     47  C         22.3800  -14.8030   33.7260 C.2   173  ILE173      0.2260
     48  O         21.5730  -14.3110   34.5150 O.2   173  ILE173     -0.2867
     49  CB        21.4150  -15.3010   31.3940 C.3   173  ILE173      0.0252
     50  CG1       21.3750  -16.4390   30.3660 C.3   173  ILE173      0.0019
     51  CG2       22.2840  -14.2040   30.8450 C.3   173  ILE173      0.0019
     52  CD1       19.9640  -16.6690   29.8650 C.3   173  ILE173      0.0001
     53  N          4.5370   -9.9860   25.1970 N.3   193  ASP193     -0.1225
     54  CA         5.9730   -9.9620   25.1510 C.3   193  ASP193      0.1805
     55  C          6.4060   -9.6690   23.7210 C.2   193  ASP193      0.2598
     56  O          5.6070   -9.7300   22.7770 O.2   193  ASP193     -0.2718
     57  CB         6.5120  -11.3760   25.6140 C.3   193  ASP193      0.1424
     58  CG         8.0100  -11.5110   25.8060 C.2   193  ASP193      0.3668
     59  OD1        8.7030  -10.4690   25.9420 O.co2 193  ASP193     -0.2456
     60  OD2        8.4950  -12.6890   25.8960 O.co2 193  ASP193     -0.2456
     61  N          7.6880   -9.3360   23.5820 N.am  194  ALA194     -0.1966
     62  CA         8.3020   -9.2240   22.3120 C.3   194  ALA194      0.1728
     63  C          8.5370  -10.6390   21.8500 C.2   194  ALA194      0.2616
     64  O          8.4580  -11.5750   22.6350 O.2   194  ALA194     -0.2715
     65  CB         9.6560   -8.5050   22.4430 C.3   194  ALA194      0.0334
     66  N          8.8970  -10.7990   20.6220 N.am  195  CYS195     -0.1954
     67  CA         9.1920  -12.1350   20.0820 C.3   195  CYS195      0.1843
     68  C         10.1150  -12.0210   18.8920 C.2   195  CYS195      0.2625
     69  O         10.5730  -10.9170   18.5520 O.2   195  CYS195     -0.2714
     70  CB         7.8750  -12.8980   19.6790 C.3   195  CYS195      0.0997
     71  SG         7.9980  -14.7350   19.5870 S.3   195  CYS195     -0.0797
     72  N         10.3310  -13.1360   18.2090 N.am  196  GLU196     -0.1963
     73  CA        11.1560  -13.0960   17.0260 C.3   196  GLU196      0.1733
     74  C         10.7020  -12.0100   16.0260 C.2   196  GLU196      0.2616
     75  O          9.5200  -11.8700   15.7300 O.2   196  GLU196     -0.2715
     76  CB        11.1990  -14.4620   16.3510 C.3   196  GLU196      0.0429
     77  CG        12.6330  -15.0220   16.2760 C.3   196  GLU196      0.1163
     78  CD        13.5200  -14.2310   15.3400 C.2   196  GLU196      0.3649
     79  OE1       13.4890  -14.5460   14.0920 O.co2 196  GLU196     -0.2457
     80  OE2       14.2130  -13.2530   15.8340 O.co2 196  GLU196     -0.2457
     81  N         11.6890  -11.2270   15.5250 N.am  197  GLY197     -0.1955
     82  CA        11.4250  -10.1230   14.5740 C.3   197  GLY197      0.1869
     83  C         11.2320   -8.7470   15.2630 C.2   197  GLY197      0.2309
     84  O         11.3770   -7.7230   14.6280 O.2   197  GLY197     -0.2863
     85  N         13.1820   -7.7660   18.0410 N.3   199  SER199     -0.1217
     86  CA        14.5300   -7.3490   18.4810 C.3   199  SER199      0.1889
     87  C         14.9040   -6.0350   17.8980 C.2   199  SER199      0.2288
     88  O         14.7260   -5.8360   16.7280 O.2   199  SER199     -0.2866
     89  CB        15.5860   -8.3580   17.9120 C.3   199  SER199      0.2089
     90  OG        15.9830   -9.2930   18.8540 O.3   199  SER199     -0.2183
     91  N         14.6520   -3.6300   22.7560 N.3   219  VAL219     -0.1231
     92  CA        14.3620   -5.0830   22.8330 C.3   219  VAL219      0.1692
     93  C         15.6690   -5.9320   22.6650 C.2   219  VAL219      0.2593
     94  O         16.3350   -5.9050   21.6050 O.2   219  VAL219     -0.2718
     95  CB        13.2420   -5.5560   21.8300 C.3   219  VAL219      0.0266
     96  CG1       12.9290   -7.0700   22.0180 C.3   219  VAL219      0.0020
     97  CG2       11.9670   -4.7890   22.0130 C.3   219  VAL219      0.0020
     98  N         16.0670   -6.7040   23.7120 N.am  220  SER220     -0.1938
     99  CA        17.3490   -7.4040   23.6160 C.3   220  SER220      0.2055
    100  C         17.2830   -8.9050   23.5560 C.2   220  SER220      0.2643
    101  O         17.7960   -9.5140   22.6080 O.2   220  SER220     -0.2714
    102  CB        18.3840   -6.8980   24.6500 C.3   220  SER220      0.2130
    103  OG        19.6270   -7.5740   24.4970 O.3   220  SER220     -0.2179
    104  N         16.7280   -9.5030   24.6170 N.am  221  TRP221     -0.1959
    105  CA        16.6470  -10.9310   24.7120 C.3   221  TRP221      0.1771
    106  C         15.5430  -11.4060   25.6090 C.2   221  TRP221      0.2620
    107  O         14.9890  -10.6870   26.4750 O.2   221  TRP221     -0.2715
    108  CB        18.0640  -11.6270   25.0530 C.3   221  TRP221      0.0590
    109  CG        18.6700  -11.2310   26.4230 C.ar  221  TRP221      0.0006
    110  CD1       19.3970  -10.1120   26.7090 C.ar  221  TRP221      0.0946
    111  CD2       18.4940  -11.8940   27.6900 C.ar  221  TRP221      0.0152
    112  NE1       19.7620  -10.0750   28.0150 N.ar  221  TRP221     -0.2442
    113  CE2       19.1730  -11.1220   28.6630 C.ar  221  TRP221      0.0810
    114  CE3       17.8260  -13.0300   28.0810 C.ar  221  TRP221      0.0012
    115  CZ2       19.2310  -11.5180   30.0080 C.ar  221  TRP221      0.0191
    116  CZ3       17.8510  -13.4030   29.4120 C.ar  221  TRP221      0.0001
    117  CH2       18.5590  -12.6740   30.3600 C.ar  221  TRP221      0.0015
    118  N         15.2190  -12.6550   25.4050 N.am  222  GLY222     -0.1940
    119  CA        14.2410  -13.3010   26.2240 C.3   222  GLY222      0.2014
    120  C         14.2630  -14.7950   25.9370 C.2   222  GLY222      0.2639
    121  O         14.6390  -15.2040   24.8750 O.2   222  GLY222     -0.2714
    122  N         13.8550  -15.5920   26.9010 N.am  223  GLU223     -0.1963
    123  CA        13.8060  -17.0450   26.7340 C.3   223  GLU223      0.1733
    124  C         12.4110  -17.4730   26.3150 C.2   223  GLU223      0.2617
    125  O         11.4510  -17.5300   27.1390 O.2   223  GLU223     -0.2715
    126  CB        14.2780  -17.7680   28.0270 C.3   223  GLU223      0.0429
    127  CG        15.4890  -17.0410   28.7060 C.3   223  GLU223      0.1163
    128  CD        15.6610  -17.3410   30.1900 C.2   223  GLU223      0.3649
    129  OE1       16.1860  -18.4180   30.5070 O.co2 223  GLU223     -0.2457
    130  OE2       15.2440  -16.5030   31.0410 O.co2 223  GLU223     -0.2457
    131  N         12.2670  -17.7070   25.0010 N.am  224  GLY224     -0.1940
    132  CA        10.9480  -17.9840   24.4290 C.3   224  GLY224      0.2014
    133  C         10.0950  -16.6710   24.3450 C.2   224  GLY224      0.2639
    134  O         10.5960  -15.5260   24.4980 O.2   224  GLY224     -0.2714
    135  N          8.8300  -16.8170   24.1220 N.am  225  CYS225     -0.1967
    136  CA         7.9840  -15.6440   24.0280 C.3   225  CYS225      0.1712
    137  C          6.7640  -15.8030   24.8660 C.2   225  CYS225      0.2296
    138  O          5.9610  -16.7120   24.6610 O.2   225  CYS225     -0.2864
    139  CB         7.5160  -15.3580   22.5820 C.3   225  CYS225      0.0983
    140  SG         8.8460  -15.3530   21.4160 S.3   225  CYS225     -0.0798
    141  N         11.0590  -10.2380   29.5810 N.3   232  GLY232     -0.1225
    142  CA        11.8450   -9.7220   28.5440 C.3   232  GLY232      0.1811
    143  C         12.9110   -8.8110   29.1500 C.2   232  GLY232      0.2280
    144  O         12.6670   -8.0690   30.1150 O.2   232  GLY232     -0.2866
@<TRIPOS>BOND
     1    26    25    2
     2    25    24    1
     3    79    78   ar
     4    24    27    1
     5    24    23    1
     6    27    28    1
     7    82    83    1
     8    82    81    1
     9    84    83    2
    10    14    13    2
    11    78    80   ar
    12    78    77    1
    13    11    12    1
    14    81    74   am
    15    28    30   ar
    16    28    29   ar
    17    75    74    2
    18    33    30   ar
    19    33    35   ar
    20    13    12    1
    21    74    73    1
    22     4     3    2
    23    30    32   ar
    24    77    76    1
    25    12    15    1
    26    76    73    1
    27    29    31   ar
    28    35    36   ar
    29    15    16    1
    30    88    87    2
    31     3     2    1
    32    73    72    1
    33    32    31   ar
    34    32    34   ar
    35    18    16   ar
    36    18    20   ar
    37    36    34   ar
    38    16    17   ar
    39    87    86    1
    40    89    86    1
    41    89    90    1
    42    85    86    1
    43     2     1    1
    44     2     5    1
    45    72    68   am
    46    69    68    2
    47     8    10   ar
    48     8     6   ar
    49    20    21   ar
    50    68    67    1
    51    17    19   ar
    52     5     6    1
    53    10     9   ar
    54     6     7   ar
    55    71    70    1
    56    71   140    1
    57    70    67    1
    58    21    19   ar
    59    21    22    1
    60    67    66    1
    61     9     7   ar
    62    66    63   am
    63   140   139    1
    64    94    93    2
    65    95    97    1
    66    95    96    1
    67    95    92    1
    68    63    62    1
    69    63    64    2
    70    62    65    1
    71    62    61    1
    72   139   136    1
    73   101   100    2
    74    93    92    1
    75    93    98   am
    76    91    92    1
    77    56    55    2
    78    44    42    1
    79    43    42    1
    80   100    99    1
    81   100   104   am
    82    61    55   am
    83    99    98    1
    84    99   102    1
    85    55    54    1
    86    42    41    1
    87   136   135    1
    88   136   137    1
    89   135   133   am
    90   133   132    1
    91   133   134    2
    92   132   131    1
    93   103   102    1
    94   104   105    1
    95   138   137    2
    96   105   108    1
    97   105   106    1
    98   121   120    2
    99    41    38    1
   100   131   124   am
   101   108   109    1
   102    54    53    1
   103    54    57    1
   104   118   106   am
   105   118   119    1
   106    38    39    1
   107    38    37    1
   108   106   107    2
   109    57    58    1
   110    58    60   ar
   111    58    59   ar
   112   120   119    1
   113   120   122   am
   114    40    39    2
   115   124   123    1
   116   124   125    2
   117   109   110   ar
   118   109   111   ar
   119   110   112   ar
   120   123   122    1
   121   123   126    1
   122   111   114   ar
   123   111   113   ar
   124   112   113   ar
   125   126   127    1
   126   114   116   ar
   127   142   143    1
   128   142   141    1
   129   113   115   ar
   130   127   128    1
   131   143   144    2
   132   116   117   ar
   133    52    50    1
   134   115   117   ar
   135   128   129   ar
   136   128   130   ar
   137    50    49    1
   138    51    49    1
   139    49    46    1
   140    46    45    1
   141    46    47    1
   142    47    48    2
