@<TRIPOS>MOLECULE
tmp/1afkB00.pdb
 150 143 0 0 0
SMALL
GASTEIGER

@<TRIPOS>ATOM
      1  N         20.5560   14.6310    6.9530 N.3     2  GLU2       -0.1231
      2  CA        20.3260   13.2220    6.6350 C.3     2  GLU2        0.1699
      3  C         19.9320   13.0590    5.1700 C.2     2  GLU2        0.2593
      4  O         18.9540   13.6560    4.7150 O.2     2  GLU2       -0.2718
      5  CB        19.2240   12.6470    7.5270 C.3     2  GLU2        0.0402
      6  CG        18.9850   11.1580    7.3030 C.3     2  GLU2        0.1161
      7  CD        17.9080   10.5970    8.1970 C.2     2  GLU2        0.3649
      8  OE1       16.8330   11.2220    8.2750 O.co2   2  GLU2       -0.2457
      9  OE2       18.1280    9.5230    8.7990 O.co2   2  GLU2       -0.2457
     10  N         20.6900   12.2480    4.4450 N.am    3  THR3       -0.1939
     11  CA        20.4140   12.0090    3.0320 C.3     3  THR3        0.2028
     12  C         19.1390   11.1800    2.9060 C.2     3  THR3        0.2642
     13  O         18.7530   10.5010    3.8660 O.2     3  THR3       -0.2714
     14  CB        21.5820   11.2230    2.3680 C.3     3  THR3        0.1808
     15  OG1       21.7360    9.9550    3.0130 O.3     3  THR3       -0.2208
     16  CG2       22.8980   11.9780    2.5110 C.3     3  THR3        0.0379
     17  N         18.4900   11.2280    1.7400 N.am    4  ALA4       -0.1977
     18  CA        17.2910   10.4260    1.4940 C.3     4  ALA4        0.1597
     19  C         17.6600    8.9270    1.5590 C.2     4  ALA4        0.2287
     20  O         16.8730    8.0960    2.0250 O.2     4  ALA4       -0.2864
     21  CB        16.6830   10.7670    0.1340 C.3     4  ALA4        0.0319
     22  N         17.8930    8.1030    5.2140 N.3     7  LYS7       -0.1231
     23  CA        16.5760    8.0710    5.8130 C.3     7  LYS7        0.1693
     24  C         15.8790    6.7710    5.4490 C.2     7  LYS7        0.2592
     25  O         15.2110    6.1770    6.2950 O.2     7  LYS7       -0.2718
     26  CB        15.7410    9.2870    5.3900 C.3     7  LYS7        0.0285
     27  CG        14.2740    9.2080    5.8240 C.3     7  LYS7        0.0035
     28  CD        13.6810   10.5830    6.0730 C.3     7  LYS7        0.0206
     29  CE        13.8280   11.4960    4.8670 C.3     7  LYS7        0.1093
     30  NZ        12.9560   11.0610    3.7360 N.3     7  LYS7       -0.1314
     31  N         16.0380    6.3150    4.2020 N.am    8  PHE8       -0.1976
     32  CA        15.4230    5.0610    3.7920 C.3     8  PHE8        0.1639
     33  C         15.8910    3.8800    4.6740 C.2     8  PHE8        0.2290
     34  O         15.0800    3.0310    5.0850 O.2     8  PHE8       -0.2864
     35  CB        15.7130    4.7520    2.3090 C.3     8  PHE8        0.0560
     36  CG        15.1440    3.4290    1.8480 C.ar    8  PHE8       -0.0200
     37  CD1       13.8320    3.3380    1.3970 C.ar    8  PHE8       -0.0042
     38  CD2       15.9100    2.2640    1.9090 C.ar    8  PHE8       -0.0042
     39  CE1       13.3040    2.1250    1.0230 C.ar    8  PHE8       -0.0003
     40  CE2       15.3810    1.0490    1.5330 C.ar    8  PHE8       -0.0003
     41  CZ        14.0810    0.9780    1.0920 C.ar    8  PHE8       -0.0000
     42  N         14.3950    4.2750    8.2600 N.3    11  GLN11      -0.1231
     43  CA        12.9670    3.9730    8.3320 C.3    11  GLN11       0.1698
     44  C         12.5350    2.6050    7.8680 C.2    11  GLN11       0.2592
     45  O         11.5160    2.0960    8.3160 O.2    11  GLN11      -0.2718
     46  CB        12.1610    4.9700    7.4980 C.3    11  GLN11       0.0381
     47  CG        12.3720    6.4170    7.8210 C.3    11  GLN11       0.0905
     48  CD        11.3410    7.2930    7.1510 C.2    11  GLN11       0.2608
     49  OE1       10.5990    7.9980    7.8170 O.2    11  GLN11      -0.2717
     50  NE2       11.2800    7.2410    5.8360 N.am   11  GLN11      -0.0878
     51  N         13.2880    1.9950    6.9640 N.am   12  HIS12      -0.1976
     52  CA        12.8410    0.7310    6.3900 C.3    12  HIS12       0.1656
     53  C         13.7200   -0.4980    6.4310 C.2    12  HIS12       0.2291
     54  O         13.2450   -1.5770    6.0990 O.2    12  HIS12      -0.2864
     55  CB        12.4160    0.9780    4.9320 C.3    12  HIS12       0.0771
     56  CG        11.3900    2.0600    4.7740 C.ar   12  HIS12       0.0820
     57  ND1       10.0920    1.9350    5.2310 N.ar   12  HIS12      -0.2267
     58  CD2       11.4780    3.3030    4.2390 C.ar   12  HIS12       0.1154
     59  CE1        9.4260    3.0510    4.9860 C.ar   12  HIS12       0.1986
     60  NE2       10.2450    3.8960    4.3860 N.ar   12  HIS12      -0.2212
     61  N          4.1270    7.8790   13.7200 N.3    41  LYS41      -0.1245
     62  CA         3.9950    7.6770   12.2740 C.3    41  LYS41       0.1561
     63  C          2.9360    6.5710   12.1600 C.2    41  LYS41       0.2260
     64  O          3.1520    5.4570   12.6150 O.2    41  LYS41      -0.2867
     65  CB         5.3150    7.2090   11.6660 C.3    41  LYS41       0.0271
     66  CG         5.2350    7.0890   10.1530 C.3    41  LYS41       0.0035
     67  CD         6.5760    6.7330    9.5530 C.3    41  LYS41       0.0206
     68  CE         6.5100    6.7140    8.0150 C.3    41  LYS41       0.1093
     69  NZ         7.7450    6.1540    7.3750 N.3    41  LYS41      -0.1314
     70  N          5.5070    5.2360   -9.8960 N.3    65  CYS65      -0.1235
     71  CA         5.3540    5.4040   -8.4620 C.3    65  CYS65       0.1677
     72  C          3.9360    5.9050   -8.2230 C.2    65  CYS65       0.2270
     73  O          3.2850    6.4250   -9.1370 O.2    65  CYS65      -0.2867
     74  CB         6.3310    6.4390   -7.9100 C.3    65  CYS65       0.0956
     75  SG         8.0750    6.1120   -8.2500 S.3    65  CYS65      -0.0801
     76  N          3.0580    8.5420   -6.8300 N.3    67  ASN67      -0.1240
     77  CA         3.0040    9.9840   -7.0970 C.3    67  ASN67       0.1653
     78  C          3.1060   10.3750   -8.5690 C.2    67  ASN67       0.2266
     79  O          3.1770   11.5630   -8.8780 O.2    67  ASN67      -0.2867
     80  CB         4.0880   10.7380   -6.3030 C.3    67  ASN67       0.1155
     81  CG         5.5000   10.5450   -6.8700 C.2    67  ASN67       0.2627
     82  OD1        5.7300    9.7330   -7.7620 O.2    67  ASN67      -0.2716
     83  ND2        6.4540   11.2890   -6.3270 N.am   67  ASN67      -0.0877
     84  N          5.7170    9.6730  -10.6310 N.3    69  GLN69      -0.1245
     85  CA         7.0860    9.5860  -11.1410 C.3    69  GLN69       0.1566
     86  C          7.3360    8.1760  -11.6920 C.2    69  GLN69       0.2260
     87  O          6.6220    7.2310  -11.3420 O.2    69  GLN69      -0.2867
     88  CB         8.1020    9.9120  -10.0500 C.3    69  GLN69       0.0367
     89  CG         8.0920   11.3600   -9.5860 C.3    69  GLN69       0.0905
     90  CD         9.2730   11.6830   -8.6790 C.2    69  GLN69       0.2608
     91  OE1       10.3680   11.1220   -8.8320 O.2    69  GLN69      -0.2717
     92  NE2        9.0660   12.5960   -7.7360 N.am   69  GLN69      -0.0878
     93  N         10.4790    6.5400  -11.5410 N.3    71  ASN71      -0.1240
     94  CA        11.7220    5.9800  -11.0230 C.3    71  ASN71       0.1653
     95  C         11.4670    4.9230   -9.9420 C.2    71  ASN71       0.2266
     96  O         12.2550    4.7890   -8.9990 O.2    71  ASN71      -0.2867
     97  CB        12.6640    7.0810  -10.4990 C.3    71  ASN71       0.1155
     98  CG        12.0680    7.8790   -9.3280 C.2    71  ASN71       0.2627
     99  OD1       10.8980    8.2400   -9.3460 O.2    71  ASN71      -0.2716
    100  ND2       12.8820    8.1530   -8.3140 N.am   71  ASN71      -0.0877
    101  N         11.3840    3.7390   -4.7590 N.3   109  ALA109     -0.1245
    102  CA        11.8160    4.7750   -5.7170 C.3   109  ALA109      0.1562
    103  C         13.3360    4.8300   -5.5770 C.2   109  ALA109      0.2260
    104  O         13.8580    4.7950   -4.4600 O.2   109  ALA109     -0.2867
    105  CB        11.1910    6.1410   -5.3800 C.3   109  ALA109      0.0290
    106  N         17.1690    6.6560   -6.6640 N.3   111  GLU111     -0.1245
    107  CA        17.7450    7.9170   -7.0910 C.3   111  GLU111      0.1567
    108  C         19.1940    8.0740   -6.6490 C.2   111  GLU111      0.2260
    109  O         19.6750    7.3660   -5.7470 O.2   111  GLU111     -0.2867
    110  CB        16.8850    9.0510   -6.5230 C.3   111  GLU111      0.0388
    111  CG        17.0780   10.4240   -7.1150 C.3   111  GLU111      0.1160
    112  CD        16.1100   11.4250   -6.5210 C.2   111  GLU111      0.3649
    113  OE1       15.9780   11.4680   -5.2720 O.co2 111  GLU111     -0.2457
    114  OE2       15.4610   12.1560   -7.2980 O.co2 111  GLU111     -0.2457
    115  N         15.3640    5.3880   -2.1560 N.3   118  VAL118     -0.1231
    116  CA        15.2310    6.5780   -1.3400 C.3   118  VAL118      0.1692
    117  C         13.8130    6.7290   -0.8200 C.2   118  VAL118      0.2592
    118  O         13.5570    7.6090   -0.0170 O.2   118  VAL118     -0.2718
    119  CB        15.6270    7.8800   -2.0970 C.3   118  VAL118      0.0266
    120  CG1       17.1230    7.8850   -2.4020 C.3   118  VAL118      0.0020
    121  CG2       14.8150    8.0340   -3.3600 C.3   118  VAL118      0.0020
    122  N         12.9030    5.8580   -1.2380 N.am  119  HIS119     -0.1962
    123  CA        11.5150    5.9510   -0.8110 C.3   119  HIS119      0.1787
    124  C         10.8690    4.5870   -0.9220 C.2   119  HIS119      0.2620
    125  O         11.1430    3.8450   -1.8700 O.2   119  HIS119     -0.2715
    126  CB        10.7890    6.9800   -1.7050 C.3   119  HIS119      0.0785
    127  CG         9.2960    6.8570   -1.7210 C.ar  119  HIS119      0.0821
    128  ND1        8.4870    7.4620   -0.7820 N.ar  119  HIS119     -0.2267
    129  CD2        8.4600    6.2320   -2.5900 C.ar  119  HIS119      0.1154
    130  CE1        7.2170    7.2200   -1.0720 C.ar  119  HIS119      0.1986
    131  NE2        7.1740    6.4760   -2.1640 N.ar  119  HIS119     -0.2212
    132  N         10.0480    4.2300    0.0580 N.am  120  PHE120     -0.1960
    133  CA         9.3540    2.9480    0.0250 C.3   120  PHE120      0.1771
    134  C          7.9720    3.2880   -0.4970 C.2   120  PHE120      0.2619
    135  O          7.2430    4.0570    0.1310 O.2   120  PHE120     -0.2715
    136  CB         9.2510    2.3250    1.4170 C.3   120  PHE120      0.0574
    137  CG         8.6930    0.9360    1.4030 C.ar  120  PHE120     -0.0200
    138  CD1        9.5270   -0.1530    1.1800 C.ar  120  PHE120     -0.0042
    139  CD2        7.3240    0.7160    1.5840 C.ar  120  PHE120     -0.0042
    140  CE1        9.0140   -1.4470    1.1310 C.ar  120  PHE120     -0.0003
    141  CE2        6.7970   -0.5770    1.5380 C.ar  120  PHE120     -0.0003
    142  CZ         7.6450   -1.6600    1.3090 C.ar  120  PHE120     -0.0000
    143  N          7.6360    2.7700   -1.6680 N.am  121  ASP121     -0.1971
    144  CA         6.3640    3.0750   -2.2910 C.3   121  ASP121      0.1709
    145  C          5.2090    2.1530   -1.8980 C.2   121  ASP121      0.2293
    146  O          4.1330    2.6500   -1.5660 O.2   121  ASP121     -0.2864
    147  CB         6.5170    3.1340   -3.8190 C.3   121  ASP121      0.1436
    148  CG         5.5190    4.0690   -4.4740 C.2   121  ASP121      0.3671
    149  OD1        5.6270    5.3060   -4.3110 O.co2 121  ASP121     -0.2456
    150  OD2        4.6200    3.5640   -5.1690 O.co2 121  ASP121     -0.2456
@<TRIPOS>BOND
     1    86    87    2
     2    86    85    1
     3    93    94    1
     4    85    84    1
     5    85    88    1
     6    94    97    1
     7    94    95    1
     8    97    98    1
     9    88    89    1
    10    95    96    2
    11    70    71    1
    12    89    90    1
    13    99    98    2
    14    98   100   am
    15    73    72    2
    16    79    78    2
    17    91    90    2
    18    90    92   am
    19    78    77    1
    20    71    72    1
    21    71    74    1
    22    75    74    1
    23    82    81    2
    24   114   112   ar
    25   111   110    1
    26   111   112    1
    27    77    76    1
    28    77    80    1
    29   107   106    1
    30   107   108    1
    31   107   110    1
    32    81    83   am
    33    81    80    1
    34   108   109    2
    35   112   113   ar
    36   102   103    1
    37   102   105    1
    38   102   101    1
    39   103   104    2
    40   150   148   ar
    41   148   149   ar
    42   148   147    1
    43   147   144    1
    44   121   119    1
    45   129   131   ar
    46   129   127   ar
    47   120   119    1
    48   144   145    1
    49   144   143    1
    50   131   130   ar
    51   115   116    1
    52   119   116    1
    53   145   146    2
    54   125   124    2
    55   127   126    1
    56   127   128   ar
    57   126   123    1
    58   143   134   am
    59   116   117    1
    60   122   117   am
    61   122   123    1
    62   130   128   ar
    63   124   123    1
    64   124   132   am
    65   117   118    2
    66   134   133    1
    67   134   135    2
    68   133   132    1
    69   133   136    1
    70    21    18    1
    71    39    41   ar
    72    39    37   ar
    73    41    40   ar
    74   140   138   ar
    75   140   142   ar
    76   138   137   ar
    77   142   141   ar
    78    37    36   ar
    79   137   136    1
    80   137   139   ar
    81    18    19    1
    82    18    17    1
    83    40    38   ar
    84   141   139   ar
    85    19    20    2
    86    17    12   am
    87    36    38   ar
    88    36    35    1
    89    35    32    1
    90    14    16    1
    91    14    15    1
    92    14    11    1
    93    12    11    1
    94    12    13    2
    95    11    10    1
    96    30    29    1
    97    32    31    1
    98    32    33    1
    99    31    24   am
   100    58    60   ar
   101    58    56   ar
   102    60    59   ar
   103    10     3   am
   104    33    34    2
   105     4     3    2
   106    56    55    1
   107    56    57   ar
   108    29    28    1
   109    55    52    1
   110    59    57   ar
   111     3     2    1
   112    22    23    1
   113    26    23    1
   114    26    27    1
   115    24    23    1
   116    24    25    2
   117    27    28    1
   118    50    48   am
   119    54    53    2
   120    52    53    1
   121    52    51    1
   122     2     1    1
   123     2     5    1
   124    51    44   am
   125    48    49    2
   126    48    47    1
   127     6     5    1
   128     6     7    1
   129    69    68    1
   130    46    47    1
   131    46    43    1
   132    44    45    2
   133    44    43    1
   134    68    67    1
   135     7     8   ar
   136     7     9   ar
   137    42    43    1
   138    67    66    1
   139    66    65    1
   140    65    62    1
   141    63    62    1
   142    63    64    2
   143    62    61    1
