@<TRIPOS>MOLECULE
tmp/1aflB00.pdb
 134 127 0 0 0
SMALL
GASTEIGER

@<TRIPOS>ATOM
      1  N         18.7280   11.2510    1.8320 N.3     4  ALA4       -0.1245
      2  CA        17.5250   10.4690    1.5280 C.3     4  ALA4        0.1562
      3  C         17.8450    8.9650    1.5550 C.2     4  ALA4        0.2260
      4  O         17.0200    8.1490    1.9960 O.2     4  ALA4       -0.2867
      5  CB        16.9530   10.8750    0.1870 C.3     4  ALA4        0.0290
      6  N         18.0200    8.0290    5.2620 N.3     7  LYS7       -0.1231
      7  CA        16.6840    8.0490    5.8240 C.3     7  LYS7        0.1693
      8  C         15.9530    6.7600    5.4550 C.2     7  LYS7        0.2592
      9  O         15.2160    6.2110    6.2700 O.2     7  LYS7       -0.2718
     10  CB        15.9280    9.2750    5.3270 C.3     7  LYS7        0.0285
     11  CG        14.5100    9.4230    5.8730 C.3     7  LYS7        0.0035
     12  CD        13.9580   10.7790    5.4570 C.3     7  LYS7        0.0206
     13  CE        12.6100   11.0790    6.0770 C.3     7  LYS7        0.1093
     14  NZ        11.5620   10.3140    5.3900 N.3     7  LYS7       -0.1314
     15  N         16.1560    6.2670    4.2340 N.am    8  PHE8       -0.1976
     16  CA        15.5200    5.0210    3.8090 C.3     8  PHE8        0.1639
     17  C         15.9810    3.8670    4.7090 C.2     8  PHE8        0.2290
     18  O         15.1750    3.0270    5.1270 O.2     8  PHE8       -0.2864
     19  CB        15.8520    4.6870    2.3410 C.3     8  PHE8        0.0560
     20  CG        15.2710    3.3680    1.8770 C.ar    8  PHE8       -0.0200
     21  CD1       13.9430    3.2850    1.4620 C.ar    8  PHE8       -0.0042
     22  CD2       16.0200    2.1970    1.9290 C.ar    8  PHE8       -0.0042
     23  CE1       13.3850    2.0710    1.1230 C.ar    8  PHE8       -0.0003
     24  CE2       15.4560    0.9730    1.5870 C.ar    8  PHE8       -0.0003
     25  CZ        14.1330    0.9140    1.1850 C.ar    8  PHE8       -0.0000
     26  N         14.4340    4.2010    8.2920 N.3    11  GLN11      -0.1231
     27  CA        13.0010    3.8950    8.3440 C.3    11  GLN11       0.1698
     28  C         12.5630    2.5240    7.9150 C.2    11  GLN11       0.2592
     29  O         11.5660    2.0100    8.4220 O.2    11  GLN11      -0.2718
     30  CB        12.2090    4.8580    7.4690 C.3    11  GLN11       0.0381
     31  CG        12.3010    6.2900    7.8220 C.3    11  GLN11       0.0905
     32  CD        11.2260    7.0890    7.1260 C.2    11  GLN11       0.2608
     33  OE1       10.3410    7.6270    7.7720 O.2    11  GLN11      -0.2717
     34  NE2       11.2830    7.1440    5.8080 N.am   11  GLN11      -0.0878
     35  N         13.2870    1.9240    6.9800 N.am   12  HIS12      -0.1976
     36  CA        12.8470    0.6630    6.4120 C.3    12  HIS12       0.1656
     37  C         13.7380   -0.5680    6.4620 C.2    12  HIS12       0.2291
     38  O         13.2720   -1.6640    6.1330 O.2    12  HIS12      -0.2864
     39  CB        12.4370    0.9170    4.9440 C.3    12  HIS12       0.0771
     40  CG        11.4830    2.0580    4.7710 C.ar   12  HIS12       0.0820
     41  ND1       10.1920    2.0340    5.2600 N.ar   12  HIS12      -0.2267
     42  CD2       11.6320    3.2670    4.1800 C.ar   12  HIS12       0.1154
     43  CE1        9.5880    3.1720    4.9780 C.ar   12  HIS12       0.1986
     44  NE2       10.4420    3.9370    4.3230 N.ar   12  HIS12      -0.2212
     45  N          4.1010    7.8430   13.7810 N.3    41  LYS41      -0.1245
     46  CA         3.9980    7.6430   12.3310 C.3    41  LYS41       0.1561
     47  C          2.9230    6.5470   12.2090 C.2    41  LYS41       0.2260
     48  O          3.0820    5.4670   12.7650 O.2    41  LYS41      -0.2867
     49  CB         5.3240    7.1620   11.7490 C.3    41  LYS41       0.0271
     50  CG         5.2780    7.0460   10.2450 C.3    41  LYS41       0.0035
     51  CD         6.5970    6.6380    9.6410 C.3    41  LYS41       0.0206
     52  CE         6.4890    6.6290    8.1190 C.3    41  LYS41       0.1093
     53  NZ         7.6630    6.0100    7.4260 N.3    41  LYS41      -0.1314
     54  N          5.5560    5.1990   -9.8890 N.3    65  CYS65      -0.1235
     55  CA         5.4010    5.3850   -8.4550 C.3    65  CYS65       0.1677
     56  C          3.9880    5.9020   -8.2120 C.2    65  CYS65       0.2270
     57  O          3.3460    6.4090   -9.1350 O.2    65  CYS65      -0.2867
     58  CB         6.3890    6.4490   -7.9200 C.3    65  CYS65       0.0956
     59  SG         8.1540    6.1390   -8.2230 S.3    65  CYS65      -0.0801
     60  N          3.1690    8.5570   -6.8870 N.3    67  ASN67      -0.1240
     61  CA         3.1130    9.9690   -7.2270 C.3    67  ASN67       0.1653
     62  C          3.2210   10.2670   -8.7070 C.2    67  ASN67       0.2266
     63  O          3.2870   11.4290   -9.0940 O.2    67  ASN67      -0.2867
     64  CB         4.1780   10.7610   -6.4590 C.3    67  ASN67       0.1155
     65  CG         5.5770   10.6020   -7.0410 C.2    67  ASN67       0.2627
     66  OD1        5.8590    9.6790   -7.8060 O.2    67  ASN67      -0.2716
     67  ND2        6.4650   11.5110   -6.6690 N.am   67  ASN67      -0.0877
     68  N          5.7960    9.6170  -10.6980 N.3    69  GLN69      -0.1245
     69  CA         7.1700    9.5940  -11.1930 C.3    69  GLN69       0.1566
     70  C          7.4680    8.1660  -11.6860 C.2    69  GLN69       0.2260
     71  O          6.8100    7.2060  -11.2740 O.2    69  GLN69      -0.2867
     72  CB         8.1400   10.0430  -10.1040 C.3    69  GLN69       0.0367
     73  CG         8.2090   11.5660   -9.9810 C.3    69  GLN69       0.0905
     74  CD         8.8870   12.0610   -8.7040 C.2    69  GLN69       0.2608
     75  OE1        8.5770   13.1490   -8.2140 O.2    69  GLN69      -0.2717
     76  NE2        9.7990   11.2640   -8.1500 N.am   69  GLN69      -0.0878
     77  N         10.6020    6.5490  -11.5470 N.3    71  ASN71      -0.1240
     78  CA        11.8290    5.9850  -10.9890 C.3    71  ASN71       0.1653
     79  C         11.5580    4.9360   -9.8990 C.2    71  ASN71       0.2266
     80  O         12.3100    4.8440   -8.9160 O.2    71  ASN71      -0.2867
     81  CB        12.7630    7.0890  -10.4590 C.3    71  ASN71       0.1155
     82  CG        12.1680    7.8680   -9.2900 C.2    71  ASN71       0.2627
     83  OD1       11.0030    8.2630   -9.3160 O.2    71  ASN71      -0.2716
     84  ND2       12.9770    8.1120   -8.2680 N.am   71  ASN71      -0.0877
     85  N         11.4490    3.7040   -4.7200 N.3   109  ALA109     -0.1245
     86  CA        11.8780    4.7250   -5.6760 C.3   109  ALA109      0.1562
     87  C         13.3860    4.7620   -5.5410 C.2   109  ALA109      0.2260
     88  O         13.8880    4.7060   -4.4290 O.2   109  ALA109     -0.2867
     89  CB        11.2950    6.0870   -5.3150 C.3   109  ALA109      0.0290
     90  N         17.2170    6.6650   -6.5770 N.3   111  GLU111     -0.1245
     91  CA        17.8000    7.9230   -7.0130 C.3   111  GLU111      0.1567
     92  C         19.2560    8.0460   -6.5890 C.2   111  GLU111      0.2260
     93  O         19.7110    7.3410   -5.6840 O.2   111  GLU111     -0.2867
     94  CB        16.9800    9.0870   -6.4360 C.3   111  GLU111      0.0388
     95  CG        17.1910   10.3990   -7.1550 C.3   111  GLU111      0.1160
     96  CD        16.2500   11.4980   -6.6930 C.2   111  GLU111      0.3649
     97  OE1       15.0220   11.2800   -6.6620 O.co2 111  GLU111     -0.2457
     98  OE2       16.7380   12.5990   -6.3800 O.co2 111  GLU111     -0.2457
     99  N         15.4090    5.3000   -2.0940 N.3   118  VAL118     -0.1231
    100  CA        15.2420    6.5130   -1.2970 C.3   118  VAL118      0.1692
    101  C         13.8130    6.6660   -0.7760 C.2   118  VAL118      0.2592
    102  O         13.5420    7.5260    0.0460 O.2   118  VAL118     -0.2718
    103  CB        15.6440    7.8100   -2.0660 C.3   118  VAL118      0.0266
    104  CG1       17.1580    7.8410   -2.3140 C.3   118  VAL118      0.0020
    105  CG2       14.8930    7.9070   -3.3740 C.3   118  VAL118      0.0020
    106  N         12.9110    5.7920   -1.1990 N.am  119  HIS119     -0.1962
    107  CA        11.5230    5.8890   -0.7700 C.3   119  HIS119      0.1787
    108  C         10.8800    4.5340   -0.9080 C.2   119  HIS119      0.2620
    109  O         11.1420    3.8280   -1.8620 O.2   119  HIS119     -0.2715
    110  CB        10.8110    6.9130   -1.6600 C.3   119  HIS119      0.0785
    111  CG         9.3140    6.8240   -1.6390 C.ar  119  HIS119      0.0821
    112  ND1        8.5370    7.5270   -0.7440 N.ar  119  HIS119     -0.2267
    113  CD2        8.4480    6.1610   -2.4480 C.ar  119  HIS119      0.1154
    114  CE1        7.2600    7.3090   -0.9990 C.ar  119  HIS119      0.1986
    115  NE2        7.1770    6.4820   -2.0290 N.ar  119  HIS119     -0.2212
    116  N         10.0880    4.1420    0.0790 N.am  120  PHE120     -0.1960
    117  CA         9.3800    2.8620    0.0250 C.3   120  PHE120      0.1771
    118  C          7.9850    3.2140   -0.4780 C.2   120  PHE120      0.2619
    119  O          7.2410    3.9470    0.1760 O.2   120  PHE120     -0.2715
    120  CB         9.2800    2.2020    1.4060 C.3   120  PHE120      0.0574
    121  CG         8.6700    0.8260    1.3680 C.ar  120  PHE120     -0.0200
    122  CD1        9.4610   -0.2850    1.1440 C.ar  120  PHE120     -0.0042
    123  CD2        7.2930    0.6500    1.5140 C.ar  120  PHE120     -0.0042
    124  CE1        8.8850   -1.5500    1.0570 C.ar  120  PHE120     -0.0003
    125  CE2        6.7190   -0.6070    1.4290 C.ar  120  PHE120     -0.0003
    126  CZ         7.5110   -1.7050    1.2010 C.ar  120  PHE120     -0.0000
    127  N          7.6480    2.7120   -1.6530 N.am  121  ASP121     -0.1971
    128  CA         6.3750    3.0100   -2.2630 C.3   121  ASP121      0.1709
    129  C          5.2280    2.1090   -1.7950 C.2   121  ASP121      0.2293
    130  O          4.2070    2.6130   -1.3350 O.2   121  ASP121     -0.2864
    131  CB         6.5310    2.9770   -3.7840 C.3   121  ASP121      0.1436
    132  CG         5.4780    3.7870   -4.4930 C.2   121  ASP121      0.3671
    133  OD1        5.5010    5.0310   -4.4030 O.co2 121  ASP121     -0.2456
    134  OD2        4.6150    3.1760   -5.1340 O.co2 121  ASP121     -0.2456
@<TRIPOS>BOND
     1    70    71    2
     2    70    69    1
     3    77    78    1
     4    69    68    1
     5    69    72    1
     6    78    81    1
     7    78    79    1
     8    81    82    1
     9    72    73    1
    10    73    74    1
    11    79    80    2
    12    54    55    1
    13    83    82    2
    14    82    84   am
    15    57    56    2
    16    63    62    2
    17    62    61    1
    18    74    75    2
    19    74    76   am
    20    55    56    1
    21    55    58    1
    22    59    58    1
    23    66    65    2
    24    61    60    1
    25    61    64    1
    26    95    96    1
    27    95    94    1
    28    65    67   am
    29    65    64    1
    30    91    92    1
    31    91    90    1
    32    91    94    1
    33    96    97   ar
    34    96    98   ar
    35    92    93    2
    36    86    87    1
    37    86    89    1
    38    86    85    1
    39    87    88    2
    40   134   132   ar
    41   132   133   ar
    42   132   131    1
    43   131   128    1
    44   105   103    1
    45   113   115   ar
    46   113   111   ar
    47   104   103    1
    48   128   129    1
    49   128   127    1
    50    99   100    1
    51   103   100    1
    52   115   114   ar
    53   109   108    2
    54   129   130    2
    55   110   111    1
    56   110   107    1
    57   127   118   am
    58   111   112   ar
    59   100   101    1
    60   106   101   am
    61   106   107    1
    62   114   112   ar
    63   108   107    1
    64   108   116   am
    65   101   102    2
    66   118   117    1
    67   118   119    2
    68   117   116    1
    69   117   120    1
    70     5     2    1
    71   124   122   ar
    72   124   126   ar
    73    23    25   ar
    74    23    21   ar
    75   122   121   ar
    76    25    24   ar
    77   126   125   ar
    78   121   120    1
    79   121   123   ar
    80   125   123   ar
    81    21    20   ar
    82     2     3    1
    83     2     1    1
    84     3     4    2
    85    24    22   ar
    86    20    22   ar
    87    20    19    1
    88    19    16    1
    89    16    15    1
    90    16    17    1
    91    42    44   ar
    92    42    40   ar
    93    15     8   am
    94    44    43   ar
    95    17    18    2
    96    40    39    1
    97    40    41   ar
    98    39    36    1
    99    43    41   ar
   100     6     7    1
   101    10     7    1
   102    10    11    1
   103    14    13    1
   104     8     7    1
   105     8     9    2
   106    12    11    1
   107    12    13    1
   108    34    32   am
   109    38    37    2
   110    36    37    1
   111    36    35    1
   112    35    28   am
   113    32    33    2
   114    32    31    1
   115    53    52    1
   116    30    31    1
   117    30    27    1
   118    28    27    1
   119    28    29    2
   120    52    51    1
   121    26    27    1
   122    51    50    1
   123    50    49    1
   124    49    46    1
   125    47    46    1
   126    47    48    2
   127    46    45    1
