@<TRIPOS>MOLECULE
tmp/1afqC01.pdb
 141 141 0 0 0
SMALL
GASTEIGER

@<TRIPOS>ATOM
      1  N         33.4820   11.8580   50.2730 N.3    23  TRP23      -0.1241
      2  CA        34.4690   11.2510   49.3810 C.3    23  TRP23       0.1605
      3  C         35.8770   11.8350   49.3320 C.2    23  TRP23       0.2264
      4  O         36.7070   11.4140   48.5160 O.2    23  TRP23      -0.2867
      5  CB        33.8950   11.2000   47.9640 C.3    23  TRP23       0.0550
      6  CG        32.6630   10.3580   47.8500 C.ar   23  TRP23       0.0003
      7  CD1       31.3860   10.7890   47.6100 C.ar   23  TRP23       0.0946
      8  CD2       32.5920    8.9350   47.9410 C.ar   23  TRP23       0.0152
      9  NE1       30.5280    9.7200   47.5430 N.ar   23  TRP23      -0.2442
     10  CE2       31.2410    8.5660   47.7440 C.ar   23  TRP23       0.0810
     11  CE3       33.5420    7.9270   48.1610 C.ar   23  TRP23       0.0012
     12  CZ2       30.8150    7.2360   47.7630 C.ar   23  TRP23       0.0191
     13  CZ3       33.1220    6.6060   48.1790 C.ar   23  TRP23       0.0001
     14  CH2       31.7670    6.2710   47.9800 C.ar   23  TRP23       0.0015
     15  N         38.5680   12.5410   46.1240 N.3    26  LYS26      -0.1245
     16  CA        38.1540   11.7850   44.9520 C.3    26  LYS26       0.1561
     17  C         37.2330   12.6470   44.0930 C.2    26  LYS26       0.2260
     18  O         37.1160   12.4270   42.8890 O.2    26  LYS26      -0.2867
     19  CB        37.4380   10.5040   45.3650 C.3    26  LYS26       0.0271
     20  CG        38.3770    9.4250   45.8990 C.3    26  LYS26       0.0035
     21  CD        37.6120    8.1980   46.3790 C.3    26  LYS26       0.0206
     22  CE        38.5640    7.0840   46.7750 C.3    26  LYS26       0.1093
     23  NZ        37.8660    5.9640   47.4590 N.3    26  LYS26      -0.1314
     24  N         19.3950    5.7890   45.9780 N.3    40  SER40      -0.1202
     25  CA        20.7400    5.7160   45.4420 C.3    40  SER40       0.2020
     26  C         20.8190    5.0340   44.0950 C.2    40  SER40       0.2619
     27  O         20.1570    4.0230   43.8770 O.2    40  SER40      -0.2717
     28  CB        21.6400    4.9520   46.4130 C.3    40  SER40       0.2103
     29  OG        22.9320    4.7500   45.8610 O.3    40  SER40      -0.2182
     30  N         21.6250    5.5990   43.1920 N.am   41  SER41      -0.1937
     31  CA        21.8570    4.9850   41.8830 C.3    41  SER41       0.2055
     32  C         22.6680    3.7290   42.2400 C.2    41  SER41       0.2643
     33  O         23.2900    3.6780   43.3040 O.2    41  SER41      -0.2714
     34  CB        22.6760    5.9180   40.9900 C.3    41  SER41       0.2130
     35  OG        21.8880    6.9960   40.5150 O.3    41  SER41      -0.2179
     36  N         22.6970    2.7250   41.3750 N.am   42  CYS42      -0.1953
     37  CA        23.4180    1.5070   41.7270 C.3    42  CYS42       0.1843
     38  C         23.9470    0.8280   40.4770 C.2    42  CYS42       0.2625
     39  O         23.7300    1.3350   39.3730 O.2    42  CYS42      -0.2714
     40  CB        22.4870    0.5840   42.5380 C.3    42  CYS42       0.0997
     41  SG        23.2900   -0.7500   43.4980 S.3    42  CYS42      -0.0797
     42  N         24.6510   -0.2950   40.6310 N.am   43  MET43      -0.1977
     43  CA        25.1980   -0.9880   39.4650 C.3    43  MET43       0.1605
     44  C         24.1200   -1.1990   38.4020 C.2    43  MET43       0.2287
     45  O         23.0080   -1.6210   38.7180 O.2    43  MET43      -0.2864
     46  CB        25.8420   -2.3240   39.8590 C.3    43  MET43       0.0413
     47  CG        27.1710   -2.1940   40.5810 C.3    43  MET43       0.0598
     48  SD        26.9580   -1.5240   42.2300 S.3    43  MET43      -0.1393
     49  CE        26.0630   -2.8340   42.9880 C.3    43  MET43       0.0692
     50  N         24.7050    3.0660   35.6540 N.3    46  SER46      -0.1217
     51  CA        25.8280    3.7450   35.0050 C.3    46  SER46       0.1889
     52  C         25.4780    4.2160   33.6060 C.2    46  SER46       0.2288
     53  O         24.8420    3.4890   32.8380 O.2    46  SER46      -0.2866
     54  CB        27.0410    2.8010   34.8980 C.3    46  SER46       0.2089
     55  OG        27.6280    2.5140   36.1530 O.3    46  SER46      -0.2183
     56  N         25.2740    9.1010   35.4370 N.3    64  VAL64      -0.1231
     57  CA        25.5850    8.1810   36.5340 C.3    64  VAL64       0.1692
     58  C         26.9990    7.6540   36.3250 C.2    64  VAL64       0.2593
     59  O         27.2900    7.0250   35.3010 O.2    64  VAL64      -0.2718
     60  CB        24.5810    7.0080   36.6180 C.3    64  VAL64       0.0266
     61  CG1       24.9160    6.1200   37.8110 C.3    64  VAL64       0.0020
     62  CG2       23.1530    7.5350   36.7420 C.3    64  VAL64       0.0020
     63  N         27.8670    7.9130   37.2990 N.am   65  SER65      -0.1938
     64  CA        29.2630    7.5230   37.2080 C.3    65  SER65       0.2055
     65  C         29.7340    6.5150   38.2660 C.2    65  SER65       0.2643
     66  O         29.9940    5.3560   37.9340 O.2    65  SER65      -0.2714
     67  CB        30.1370    8.7820   37.2270 C.3    65  SER65       0.2130
     68  OG        31.4980    8.4790   37.0080 O.3    65  SER65      -0.2179
     69  N         29.8440    6.9330   39.5250 N.am   66  TRP66      -0.1959
     70  CA        30.2920    6.0230   40.5870 C.3    66  TRP66       0.1771
     71  C         29.7330    6.3780   41.9570 C.2    66  TRP66       0.2620
     72  O         29.1250    7.4390   42.1190 O.2    66  TRP66      -0.2715
     73  CB        31.8280    5.9720   40.6440 C.3    66  TRP66       0.0590
     74  CG        32.4940    7.2850   40.9780 C.ar   66  TRP66       0.0006
     75  CD1       32.8170    8.2890   40.1090 C.ar   66  TRP66       0.0946
     76  CD2       32.9680    7.7050   42.2640 C.ar   66  TRP66       0.0152
     77  NE1       33.4690    9.2980   40.7710 N.ar   66  TRP66      -0.2442
     78  CE2       33.5730    8.9670   42.0960 C.ar   66  TRP66       0.0810
     79  CE3       32.9370    7.1350   43.5450 C.ar   66  TRP66       0.0012
     80  CZ2       34.1510    9.6750   43.1640 C.ar   66  TRP66       0.0191
     81  CZ3       33.5140    7.8400   44.6070 C.ar   66  TRP66       0.0001
     82  CH2       34.1090    9.0940   44.4050 C.ar   66  TRP66       0.0015
     83  N         29.9600    5.5030   42.9370 N.am   67  GLY67      -0.1940
     84  CA        29.4800    5.7530   44.2820 C.3    67  GLY67       0.2014
     85  C         29.8210    4.6570   45.2620 C.2    67  GLY67       0.2640
     86  O         30.7880    3.9320   45.0810 O.2    67  GLY67      -0.2714
     87  N         28.9930    4.5250   46.2870 N.am   68  SER68      -0.1935
     88  CA        29.1710    3.5300   47.3270 C.3    68  SER68       0.2055
     89  C         29.1380    2.1150   46.7550 C.2    68  SER68       0.2643
     90  O         28.2290    1.7720   45.9900 O.2    68  SER68      -0.2714
     91  CB        28.0610    3.7000   48.3800 C.3    68  SER68       0.2130
     92  OG        27.8260    2.4910   49.0930 O.3    68  SER68      -0.2179
     93  N         30.1020    1.2860   47.1480 N.am   69  SER69      -0.1949
     94  CA        30.1470   -0.0940   46.6730 C.3    69  SER69       0.1924
     95  C         28.9150   -0.8970   47.1000 C.2    69  SER69       0.2314
     96  O         28.6310   -1.9600   46.5440 O.2    69  SER69      -0.2863
     97  CB        31.4210   -0.7920   47.1600 C.3    69  SER69       0.2116
     98  OG        31.5300   -0.7070   48.5720 O.3    69  SER69      -0.2180
     99  N         25.8690    0.7420   47.4190 N.3    71  CYS71      -0.1235
    100  CA        24.7430    1.5820   47.0160 C.3    71  CYS71       0.1677
    101  C         23.9880    2.1110   48.2380 C.2    71  CYS71       0.2270
    102  O         22.7590    2.1370   48.2800 O.2    71  CYS71      -0.2867
    103  CB        23.8220    0.8220   46.0570 C.3    71  CYS71       0.0956
    104  SG        24.7150    0.1890   44.6040 S.3    71  CYS71      -0.0801
    105  N         24.7510    7.7750   51.4900 N.3    75  THR75      -0.1204
    106  CA        25.9870    8.2380   50.8700 C.3    75  THR75       0.1979
    107  C         25.6120    8.8310   49.5040 C.2    75  THR75       0.2460
    108  O         24.7710    8.2830   48.7930 O.2    75  THR75      -0.2732
    109  CB        26.9410    7.0540   50.6720 C.3    75  THR75       0.1783
    110  OG1       27.0810    6.3500   51.9100 O.3    75  THR75      -0.2211
    111  CG2       28.3010    7.5300   50.2200 C.3    75  THR75       0.0376
    112  N         26.1980    9.9780   49.1370 N.am   76  PRO76      -0.2717
    113  CA        25.8450   10.5510   47.8390 C.3    76  PRO76       0.1536
    114  C         26.5050    9.8640   46.6470 C.2    76  PRO76       0.2599
    115  O         27.6480    9.4020   46.7270 O.2    76  PRO76      -0.2715
    116  CB        26.2920   12.0040   47.9790 C.3    76  PRO76       0.0310
    117  CG        27.4980   11.9020   48.8710 C.3    76  PRO76       0.0237
    118  CD        27.0750   10.8820   49.9030 C.3    76  PRO76       0.0939
    119  N         25.7430    9.7300   45.5680 N.am   77  GLY77      -0.1941
    120  CA        26.2690    9.1330   44.3620 C.3    77  GLY77       0.2014
    121  C         27.0360   10.2260   43.6410 C.2    77  GLY77       0.2639
    122  O         26.7880   11.4190   43.8680 O.2    77  GLY77      -0.2714
    123  N         27.9580    9.8350   42.7720 N.am   78  VAL78      -0.1963
    124  CA        28.7530   10.8010   42.0260 C.3    78  VAL78       0.1727
    125  C         28.4250   10.6610   40.5430 C.2    78  VAL78       0.2616
    126  O         28.3810    9.5510   39.9940 O.2    78  VAL78      -0.2715
    127  CB        30.2630   10.6300   42.3080 C.3    78  VAL78       0.0290
    128  CG1       31.0500   11.7880   41.7230 C.3    78  VAL78       0.0023
    129  CG2       30.4940   10.5440   43.8080 C.3    78  VAL78       0.0023
    130  N         28.1790   11.8020   39.9120 N.am   79  TYR79      -0.1974
    131  CA        27.7850   11.8740   38.5120 C.3    79  TYR79       0.1639
    132  C         28.7500   12.7400   37.7040 C.2    79  TYR79       0.2290
    133  O         29.3640   13.6540   38.2450 O.2    79  TYR79      -0.2864
    134  CB        26.3650   12.4850   38.4330 C.3    79  TYR79       0.0560
    135  CG        25.3160   11.7330   39.2480 C.ar   79  TYR79      -0.0198
    136  CD1       25.3130   11.7930   40.6380 C.ar   79  TYR79      -0.0009
    137  CD2       24.3740   10.9160   38.6280 C.ar   79  TYR79      -0.0009
    138  CE1       24.4050   11.0450   41.3930 C.ar   79  TYR79       0.0417
    139  CE2       23.4580   10.1630   39.3730 C.ar   79  TYR79       0.0417
    140  CZ        23.4830   10.2270   40.7540 C.ar   79  TYR79       0.1957
    141  OH        22.6260    9.4510   41.5100 O.3    79  TYR79      -0.2866
@<TRIPOS>BOND
     1    53    52    2
     2    52    51    1
     3    54    51    1
     4    54    55    1
     5    51    50    1
     6    59    58    2
     7    56    57    1
     8    58    57    1
     9    58    63   am
    10    57    60    1
    11    60    62    1
    12    60    61    1
    13    68    67    1
    14    64    67    1
    15    64    63    1
    16    64    65    1
    17   132   133    2
    18   132   131    1
    19    66    65    2
    20    65    69   am
    21    44    45    2
    22    44    43    1
    23   134   131    1
    24   134   135    1
    25   131   130    1
    26   137   135   ar
    27   137   139   ar
    28   135   136   ar
    29   139   140   ar
    30    39    38    2
    31    43    46    1
    32    43    42    1
    33    69    70    1
    34    46    47    1
    35   130   125   am
    36   126   125    2
    37    75    77   ar
    38    75    74   ar
    39    38    42   am
    40    38    37    1
    41    35    34    1
    42   125   124    1
    43    47    48    1
    44    70    73    1
    45    70    71    1
    46   136   138   ar
    47    73    74    1
    48   140   138   ar
    49   140   141    1
    50    77    78   ar
    51    74    76   ar
    52    34    31    1
    53    36    37    1
    54    36    32   am
    55   128   127    1
    56    37    40    1
    57    31    32    1
    58    31    30    1
    59    71    72    2
    60    71    83   am
    61   124   127    1
    62   124   123    1
    63    78    76   ar
    64    78    80   ar
    65    48    49    1
    66    32    33    2
    67    76    79   ar
    68   127   129    1
    69    40    41    1
    70   123   121   am
    71    18    17    2
    72    83    84    1
    73    80    82   ar
    74    30    26   am
    75    41   104    1
    76    79    81   ar
    77   121   122    2
    78   121   120    1
    79    27    26    2
    80    17    16    1
    81    26    25    1
    82    84    85    1
    83   120   119    1
    84    82    81   ar
    85   104   103    1
    86    16    19    1
    87    16    15    1
    88    86    85    2
    89    85    87   am
    90    19    20    1
    91    25    24    1
    92    25    28    1
    93   119   114   am
    94    29    28    1
    95    20    21    1
    96    90    89    2
    97   103   100    1
    98    87    88    1
    99    21    22    1
   100    96    95    2
   101   114   115    2
   102   114   113    1
   103    94    95    1
   104    94    93    1
   105    94    97    1
   106    89    93   am
   107    89    88    1
   108    22    23    1
   109   100    99    1
   110   100   101    1
   111    97    98    1
   112    88    91    1
   113     9     7   ar
   114     9    10   ar
   115     7     6   ar
   116    10    12   ar
   117    10     8   ar
   118    12    14   ar
   119   113   116    1
   120   113   112    1
   121     6     8   ar
   122     6     5    1
   123     8    11   ar
   124     5     2    1
   125   116   117    1
   126    14    13   ar
   127    11    13   ar
   128   101   102    2
   129    91    92    1
   130     4     3    2
   131   108   107    2
   132   117   118    1
   133   112   107   am
   134   112   118    1
   135     3     2    1
   136     2     1    1
   137   107   106    1
   138   111   109    1
   139   109   106    1
   140   109   110    1
   141   106   105    1
