@<TRIPOS>MOLECULE
tmp/1afsB01.pdb
 146 142 0 0 0
SMALL
GASTEIGER

@<TRIPOS>ATOM
      1  N        -21.6350   62.3150  -11.4420 N.3    24  THR24      -0.1218
      2  CA       -21.6120   63.7080  -11.8740 C.3    24  THR24       0.1862
      3  C        -22.5140   64.5290  -10.9470 C.2    24  THR24       0.2287
      4  O        -23.5810   64.0710  -10.5560 O.2    24  THR24      -0.2866
      5  CB       -22.1470   63.8760  -13.3190 C.3    24  THR24       0.1770
      6  OG1      -23.3850   63.1790  -13.4410 O.3    24  THR24      -0.2211
      7  CG2      -21.1650   63.3530  -14.3590 C.3    24  THR24       0.0375
      8  N        -24.8900   71.2380  -11.9300 N.3    27  GLU27      -0.1245
      9  CA       -24.3660   72.6020  -11.7780 C.3    27  GLU27       0.1567
     10  C        -24.6710   73.3610  -10.4920 C.2    27  GLU27       0.2260
     11  O        -23.7680   73.9230   -9.8570 O.2    27  GLU27      -0.2867
     12  CB       -24.7540   73.4620  -12.9870 C.3    27  GLU27       0.0388
     13  CG       -23.8380   74.6840  -13.2170 C.3    27  GLU27       0.1160
     14  CD       -22.3620   74.3130  -13.4420 C.2    27  GLU27       0.3649
     15  OE1      -22.0480   73.6270  -14.4450 O.co2  27  GLU27      -0.2457
     16  OE2      -21.5140   74.7180  -12.6130 O.co2  27  GLU27      -0.2457
     17  N        -12.5730   64.5100  -15.2840 N.3    54  LEU54      -0.1231
     18  CA       -13.3360   65.7070  -15.6200 C.3    54  LEU54       0.1693
     19  C        -14.3670   66.1320  -14.5730 C.2    54  LEU54       0.2592
     20  O        -14.5670   67.3190  -14.3640 O.2    54  LEU54      -0.2718
     21  CB       -14.0410   65.4940  -16.9560 C.3    54  LEU54       0.0284
     22  CG       -14.9040   66.6460  -17.4440 C.3    54  LEU54       0.0019
     23  CD1      -14.0060   67.7290  -18.0270 C.3    54  LEU54       0.0001
     24  CD2      -15.8550   66.1460  -18.5010 C.3    54  LEU54       0.0001
     25  N        -14.9920   65.1640  -13.9030 N.am   55  TYR55      -0.1976
     26  CA       -16.0410   65.4420  -12.9210 C.3    55  TYR55       0.1639
     27  C        -15.5970   66.2080  -11.6800 C.2    55  TYR55       0.2290
     28  O        -16.4320   66.7240  -10.9400 O.2    55  TYR55      -0.2864
     29  CB       -16.7540   64.1540  -12.4780 C.3    55  TYR55       0.0560
     30  CG       -17.4290   63.3410  -13.5730 C.ar   55  TYR55      -0.0198
     31  CD1      -17.4950   63.8080  -14.8820 C.ar   55  TYR55      -0.0009
     32  CD2      -17.9350   62.0700  -13.3050 C.ar   55  TYR55      -0.0009
     33  CE1      -18.0350   63.0250  -15.8990 C.ar   55  TYR55       0.0417
     34  CE2      -18.4670   61.2860  -14.3140 C.ar   55  TYR55       0.0417
     35  CZ       -18.5050   61.7660  -15.6050 C.ar   55  TYR55       0.1957
     36  OH       -18.9400   60.9610  -16.6180 O.3    55  TYR55      -0.2866
     37  N        -12.1730   57.8820  -15.8640 N.3    84  LYS84      -0.1245
     38  CA       -11.9180   58.1350  -17.2820 C.3    84  LYS84       0.1561
     39  C        -10.7810   59.1110  -17.5430 C.2    84  LYS84       0.2260
     40  O        -10.5920   60.0790  -16.8120 O.2    84  LYS84      -0.2867
     41  CB       -13.1930   58.6350  -17.9710 C.3    84  LYS84       0.0271
     42  CG       -14.4930   58.0040  -17.4960 C.3    84  LYS84       0.0035
     43  CD       -15.6520   58.3840  -18.3990 C.3    84  LYS84       0.0206
     44  CE       -16.9560   57.8660  -17.8480 C.3    84  LYS84       0.1093
     45  NZ       -17.2770   58.4850  -16.5280 N.3    84  LYS84      -0.1314
     46  N        -12.2870   58.7510  -22.1450 N.3   117  HIS117     -0.1226
     47  CA       -13.5380   59.5090  -22.1170 C.3   117  HIS117      0.1752
     48  C        -14.1230   59.9220  -23.4780 C.2   117  HIS117      0.2596
     49  O        -15.3360   59.8400  -23.6850 O.2   117  HIS117     -0.2718
     50  CB       -13.3600   60.7260  -21.2140 C.3   117  HIS117      0.0759
     51  CG       -14.6300   61.2180  -20.5880 C.ar  117  HIS117      0.0818
     52  ND1      -14.6440   61.9560  -19.4250 N.ar  117  HIS117     -0.2268
     53  CD2      -15.9230   61.0910  -20.9670 C.ar  117  HIS117      0.1154
     54  CE1      -15.8880   62.2620  -19.1140 C.ar  117  HIS117      0.1986
     55  NE2      -16.6850   61.7500  -20.0350 N.ar  117  HIS117     -0.2212
     56  N        -13.2640   60.3890  -24.3850 N.am  118  PHE118     -0.1976
     57  CA       -13.6620   60.8110  -25.7340 C.3   118  PHE118      0.1639
     58  C        -12.5080   60.4970  -26.6540 C.2   118  PHE118      0.2290
     59  O        -11.3600   60.5540  -26.2300 O.2   118  PHE118     -0.2864
     60  CB       -13.8900   62.3230  -25.7890 C.3   118  PHE118      0.0560
     61  CG       -15.2230   62.7610  -25.2740 C.ar  118  PHE118     -0.0200
     62  CD1      -16.3370   62.7380  -26.1020 C.ar  118  PHE118     -0.0042
     63  CD2      -15.3610   63.2310  -23.9740 C.ar  118  PHE118     -0.0042
     64  CE1      -17.5740   63.1790  -25.6470 C.ar  118  PHE118     -0.0003
     65  CE2      -16.6020   63.6780  -23.5050 C.ar  118  PHE118     -0.0003
     66  CZ       -17.7040   63.6500  -24.3430 C.ar  118  PHE118     -0.0000
     67  N        -10.8560   72.3810  -21.2910 N.3   129  PHE129     -0.1241
     68  CA       -11.1090   72.7580  -22.6810 C.3   129  PHE129      0.1605
     69  C        -10.2950   73.9920  -23.0370 C.2   129  PHE129      0.2264
     70  O        -10.8000   75.1100  -22.9920 O.2   129  PHE129     -0.2867
     71  CB       -12.5900   73.0410  -22.8910 C.3   129  PHE129      0.0534
     72  CG       -13.4650   71.8030  -22.8730 C.ar  129  PHE129     -0.0203
     73  CD1      -14.0170   71.3450  -21.6860 C.ar  129  PHE129     -0.0042
     74  CD2      -13.7610   71.1260  -24.0530 C.ar  129  PHE129     -0.0042
     75  CE1      -14.8520   70.2400  -21.6770 C.ar  129  PHE129     -0.0003
     76  CE2      -14.5870   70.0300  -24.0450 C.ar  129  PHE129     -0.0003
     77  CZ       -15.1350   69.5860  -22.8600 C.ar  129  PHE129     -0.0000
     78  N        -17.7860   56.9410  -25.8370 N.3   167  ASN167     -0.1240
     79  CA       -18.1030   57.8430  -26.9550 C.3   167  ASN167      0.1653
     80  C        -17.3590   57.5810  -28.2770 C.2   167  ASN167      0.2266
     81  O        -17.1020   58.4980  -29.0590 O.2   167  ASN167     -0.2867
     82  CB       -17.9540   59.3200  -26.5190 C.3   167  ASN167      0.1155
     83  CG       -18.8580   59.6740  -25.3450 C.2   167  ASN167      0.2627
     84  OD1      -20.0640   59.4120  -25.3730 O.2   167  ASN167     -0.2716
     85  ND2      -18.2740   60.2320  -24.2910 N.am  167  ASN167     -0.0877
     86  N        -25.2950   55.5020  -20.7200 N.3   216  TYR216     -0.1241
     87  CA       -25.4370   56.6620  -19.8550 C.3   216  TYR216      0.1605
     88  C        -26.6310   57.4690  -20.3780 C.2   216  TYR216      0.2264
     89  O        -27.0280   57.2940  -21.5290 O.2   216  TYR216     -0.2867
     90  CB       -24.1270   57.4640  -19.7580 C.3   216  TYR216      0.0534
     91  CG       -23.6320   58.1760  -21.0070 C.ar  216  TYR216     -0.0201
     92  CD1      -24.2180   59.3640  -21.4380 C.ar  216  TYR216     -0.0009
     93  CD2      -22.4950   57.7290  -21.6840 C.ar  216  TYR216     -0.0009
     94  CE1      -23.6760   60.0920  -22.4990 C.ar  216  TYR216      0.0417
     95  CE2      -21.9500   58.4580  -22.7480 C.ar  216  TYR216      0.0417
     96  CZ       -22.5490   59.6410  -23.1380 C.ar  216  TYR216      0.1957
     97  OH       -22.0000   60.4060  -24.1410 O.3   216  TYR216     -0.2866
     98  N        -29.4020   69.0260  -17.4050 N.3   224  ASP224     -0.1239
     99  CA       -28.5440   70.0770  -16.8820 C.3   224  ASP224      0.1674
    100  C        -28.4670   71.0750  -18.0240 C.2   224  ASP224      0.2266
    101  O        -28.0200   70.7340  -19.1150 O.2   224  ASP224     -0.2867
    102  CB       -27.1590   69.4870  -16.5860 C.3   224  ASP224      0.1410
    103  CG       -26.2640   70.4220  -15.7800 C.2   224  ASP224      0.3668
    104  OD1      -26.0950   71.6000  -16.1540 O.co2 224  ASP224     -0.2456
    105  OD2      -25.6900   69.9640  -14.7780 O.co2 224  ASP224     -0.2456
    106  N        -26.4880   73.4200  -18.6150 N.3   226  THR226     -0.1203
    107  CA       -25.1540   73.7580  -19.1000 C.3   226  THR226      0.1994
    108  C        -24.7840   72.8480  -20.2650 C.2   226  THR226      0.2617
    109  O        -23.9070   73.1890  -21.0590 O.2   226  THR226     -0.2717
    110  CB       -24.0560   73.6620  -18.0140 C.3   226  THR226      0.1784
    111  OG1      -23.7500   72.2900  -17.7350 O.3   226  THR226     -0.2211
    112  CG2      -24.5070   74.3560  -16.7510 C.3   226  THR226      0.0376
    113  N        -25.4540   71.6990  -20.3770 N.am  227  TRP227     -0.1975
    114  CA       -25.1630   70.7940  -21.4830 C.3   227  TRP227      0.1640
    115  C        -26.3590   70.0980  -22.1530 C.2   227  TRP227      0.2290
    116  O        -26.1950   69.4650  -23.2040 O.2   227  TRP227     -0.2864
    117  CB       -24.0640   69.7880  -21.1050 C.3   227  TRP227      0.0576
    118  CG       -24.4580   68.8230  -20.0860 C.ar  227  TRP227      0.0006
    119  CD1      -24.4390   69.0040  -18.7410 C.ar  227  TRP227      0.0946
    120  CD2      -24.9550   67.5010  -20.3170 C.ar  227  TRP227      0.0152
    121  NE1      -24.8990   67.8730  -18.1080 N.ar  227  TRP227     -0.2442
    122  CE2      -25.2220   66.9330  -19.0540 C.ar  227  TRP227      0.0810
    123  CE3      -25.1980   66.7350  -21.4720 C.ar  227  TRP227      0.0012
    124  CZ2      -25.7230   65.6280  -18.9100 C.ar  227  TRP227      0.0191
    125  CZ3      -25.6930   65.4400  -21.3270 C.ar  227  TRP227      0.0001
    126  CH2      -25.9490   64.9020  -20.0550 C.ar  227  TRP227      0.0015
    127  N        -26.6580   64.3560  -25.5710 N.3   306  ASN306     -0.1240
    128  CA       -25.2270   64.6830  -25.5050 C.3   306  ASN306      0.1653
    129  C        -24.5850   64.7400  -26.8970 C.2   306  ASN306      0.2266
    130  O        -24.0880   63.7300  -27.4170 O.2   306  ASN306     -0.2867
    131  CB       -24.4750   63.6770  -24.6250 C.3   306  ASN306      0.1155
    132  CG       -23.0460   64.1100  -24.3490 C.2   306  ASN306      0.2627
    133  OD1      -22.7480   65.3000  -24.3240 O.2   306  ASN306     -0.2716
    134  ND2      -22.1560   63.1470  -24.1440 N.am  306  ASN306     -0.0877
    135  N        -19.2760   70.9290  -27.2920 N.3   310  TYR310     -0.1241
    136  CA       -18.2230   71.6250  -26.5500 C.3   310  TYR310      0.1605
    137  C        -16.8670   71.2050  -27.1190 C.2   310  TYR310      0.2264
    138  O        -15.8270   71.6790  -26.6820 O.2   310  TYR310     -0.2867
    139  CB       -18.3110   71.3370  -25.0340 C.3   310  TYR310      0.0534
    140  CG       -18.7870   69.9380  -24.6730 C.ar  310  TYR310     -0.0201
    141  CD1      -17.8940   68.8720  -24.5950 C.ar  310  TYR310     -0.0009
    142  CD2      -20.1430   69.6720  -24.4610 C.ar  310  TYR310     -0.0009
    143  CE1      -18.3330   67.5840  -24.3250 C.ar  310  TYR310      0.0417
    144  CE2      -20.5930   68.3830  -24.1930 C.ar  310  TYR310      0.0417
    145  CZ       -19.6810   67.3500  -24.1300 C.ar  310  TYR310      0.1957
    146  OH       -20.1150   66.0760  -23.8990 O.3   310  TYR310     -0.2866
@<TRIPOS>BOND
     1    81    80    2
     2    80    79    1
     3   130   129    2
     4   135   136    1
     5   137   138    2
     6   137   136    1
     7    79    82    1
     8    79    78    1
     9   129   128    1
    10    58    59    2
    11    58    57    1
    12   136   139    1
    13    82    83    1
    14    62    64   ar
    15    62    61   ar
    16    60    57    1
    17    60    61    1
    18    57    56    1
    19    64    66   ar
    20   127   128    1
    21   128   131    1
    22    84    83    2
    23    83    85   am
    24    61    63   ar
    25   139   140    1
    26   140   141   ar
    27   140   142   ar
    28   131   132    1
    29   141   143   ar
    30   142   144   ar
    31    56    48   am
    32   132   133    2
    33   132   134   am
    34    66    65   ar
    35   143   145   ar
    36   144   145   ar
    37    97    96    1
    38   145   146    1
    39    74    76   ar
    40    74    72   ar
    41    76    77   ar
    42    63    65   ar
    43    49    48    2
    44    48    47    1
    45   116   115    2
    46    96    95   ar
    47    96    94   ar
    48    69    70    2
    49    69    68    1
    50    71    72    1
    51    71    68    1
    52    72    73   ar
    53    77    75   ar
    54    95    93   ar
    55    68    67    1
    56    94    92   ar
    57   115   114    1
    58    46    47    1
    59    47    50    1
    60    73    75   ar
    61    93    91   ar
    62    89    88    2
    63   114   117    1
    64   114   113    1
    65   123   125   ar
    66   123   120   ar
    67    92    91   ar
    68   125   126   ar
    69    50    51    1
    70   117   118    1
    71   109   108    2
    72    91    90    1
    73    53    51   ar
    74    53    55   ar
    75    86    87    1
    76    51    52   ar
    77    88    87    1
    78   113   108   am
    79   120   118   ar
    80   120   122   ar
    81   108   107    1
    82   118   119   ar
    83   126   124   ar
    84    55    54   ar
    85    87    90    1
    86    52    54   ar
    87   101   100    2
    88   107   106    1
    89   107   110    1
    90   122   124   ar
    91   122   121   ar
    92   119   121   ar
    93    24    22    1
    94    43    44    1
    95    43    42    1
    96    23    22    1
    97   100    99    1
    98   110   111    1
    99   110   112    1
   100    41    42    1
   101    41    38    1
   102    44    45    1
   103    39    38    1
   104    39    40    2
   105    22    21    1
   106    98    99    1
   107    38    37    1
   108    21    18    1
   109    99   102    1
   110    36    35    1
   111   102   103    1
   112   104   103   ar
   113    33    35   ar
   114    33    31   ar
   115   103   105   ar
   116    18    17    1
   117    18    19    1
   118    35    34   ar
   119    31    30   ar
   120    19    20    2
   121    19    25   am
   122    15    14   ar
   123     7     5    1
   124    34    32   ar
   125    25    26    1
   126    30    32   ar
   127    30    29    1
   128    14    13    1
   129    14    16   ar
   130     6     5    1
   131     5     2    1
   132    13    12    1
   133    12     9    1
   134    26    29    1
   135    26    27    1
   136     8     9    1
   137     2     1    1
   138     2     3    1
   139     9    10    1
   140    27    28    2
   141     3     4    2
   142    10    11    2
