@<TRIPOS>MOLECULE
tmp/1afwB00.pdb
 89 84 0 0 0
SMALL
GASTEIGER

@<TRIPOS>ATOM
      1  N         42.5560   12.6730   81.5910 N.3    69  VAL69      -0.1245
      2  CA        43.3130   13.5540   80.7430 C.3    69  VAL69       0.1561
      3  C         44.0940   14.6200   81.4640 C.2    69  VAL69       0.2260
      4  O         45.2230   14.8850   81.0110 O.2    69  VAL69      -0.2867
      5  CB        42.2990   14.2830   79.6890 C.3    69  VAL69       0.0252
      6  CG1       42.9850   15.3110   78.7350 C.3    69  VAL69       0.0019
      7  CG2       41.5560   13.2590   78.7670 C.3    69  VAL69       0.0019
      8  N         43.3130   11.5390   75.2770 N.3   100  GLN100     -0.1231
      9  CA        42.5260   12.7460   75.2620 C.3   100  GLN100      0.1698
     10  C         41.0510   12.5030   75.4810 C.2   100  GLN100      0.2592
     11  O         40.6780   11.8050   76.4280 O.2   100  GLN100     -0.2718
     12  CB        42.7350   13.5110   73.9350 C.3   100  GLN100      0.0381
     13  CG        44.1830   13.9900   73.6650 C.3   100  GLN100      0.0905
     14  CD        44.7450   15.0260   74.6980 C.2   100  GLN100      0.2608
     15  OE1       44.0100   15.6540   75.4110 O.2   100  GLN100     -0.2717
     16  NE2       46.0740   15.2760   74.6790 N.am  100  GLN100     -0.0878
     17  N         40.2190   13.1170   74.6370 N.am  101  CYS101     -0.1970
     18  CA        38.7490   12.9480   74.7880 C.3   101  CYS101      0.1712
     19  C         38.2430   11.5090   74.6440 C.2   101  CYS101      0.2296
     20  O         37.1040   11.2350   75.0390 O.2   101  CYS101     -0.2864
     21  CB        38.0470   13.7920   73.6870 C.3   101  CYS101      0.0983
     22  SG        38.9480   15.3710   73.3880 S.3   101  CYS101     -0.0798
     23  N         47.0050   22.4780   83.3570 N.3   138  VAL138     -0.1245
     24  CA        47.4130   22.7470   82.0120 C.3   138  VAL138      0.1561
     25  C         47.8370   24.2100   81.9300 C.2   138  VAL138      0.2260
     26  O         47.0950   25.1310   82.3150 O.2   138  VAL138     -0.2867
     27  CB        46.2650   22.5320   81.0570 C.3   138  VAL138      0.0252
     28  CG1       46.6020   23.0270   79.6080 C.3   138  VAL138      0.0019
     29  CG2       45.8920   21.0550   81.0620 C.3   138  VAL138      0.0019
     30  N         50.6240   26.5970   77.0940 N.3   142  GLY142     -0.1210
     31  CA        50.9010   25.4290   76.2450 C.3   142  GLY142      0.1956
     32  C         51.7540   24.4570   77.0500 C.2   142  GLY142      0.2611
     33  O         52.4850   24.8500   77.9530 O.2   142  GLY142     -0.2717
     34  N         51.6120   23.1880   76.7260 N.am  143  MET143     -0.1979
     35  CA        52.3130   22.1270   77.4170 C.3   143  MET143      0.1605
     36  C         53.5310   21.6510   76.6760 C.2   143  MET143      0.2287
     37  O         54.1280   20.6830   77.1270 O.2   143  MET143     -0.2864
     38  CB        51.3560   20.9780   77.7380 C.3   143  MET143      0.0413
     39  CG        50.2590   21.4530   78.6910 C.3   143  MET143      0.0598
     40  SD        51.0310   22.0000   80.3100 S.3   143  MET143     -0.1393
     41  CE        51.2620   20.2770   81.0360 C.3   143  MET143      0.0692
     42  N         49.3670   21.1400   67.7870 N.3   158  CYS158     -0.1221
     43  CA        48.8620   20.5360   69.0590 C.3   158  CYS158      0.1808
     44  C         48.5910   21.6230   70.0840 C.2   158  CYS158      0.2601
     45  O         48.1330   21.3680   71.1890 O.2   158  CYS158     -0.2717
     46  CB        49.7420   19.3940   69.6220 C.3   158  CYS158      0.0970
     47  SG        49.8600   18.0560   68.3880 S.3   158  CYS158     -0.0800
     48  N         48.8540   22.8640   69.7030 N.am  159  LEU159     -0.1965
     49  CA        48.5820   23.9730   70.6240 C.3   159  LEU159      0.1728
     50  C         47.3640   24.7860   70.1160 C.2   159  LEU159      0.2616
     51  O         46.9620   25.7610   70.6820 O.2   159  LEU159     -0.2715
     52  CB        49.7920   24.9030   70.8340 C.3   159  LEU159      0.0311
     53  CG        51.0200   24.1480   71.3170 C.3   159  LEU159      0.0022
     54  CD1       52.2450   25.0770   71.4430 C.3   159  LEU159      0.0001
     55  CD2       50.6000   23.6310   72.6980 C.3   159  LEU159      0.0001
     56  N         46.7320   24.3950   69.0290 N.am  160  ILE160     -0.1964
     57  CA        45.5590   25.1680   68.6130 C.3   160  ILE160      0.1712
     58  C         44.3820   24.7800   69.5090 C.2   160  ILE160      0.2458
     59  O         44.0210   23.6300   69.6190 O.2   160  ILE160     -0.2730
     60  CB        45.1750   24.7100   67.2110 C.3   160  ILE160      0.0289
     61  CG1       46.3960   24.9020   66.3020 C.3   160  ILE160      0.0022
     62  CG2       43.7630   25.2750   66.8290 C.3   160  ILE160      0.0023
     63  CD1       46.1710   24.4560   64.8980 C.3   160  ILE160      0.0001
     64  N         43.7970   25.7510   70.1550 N.am  161  PRO161     -0.2716
     65  CA        42.6360   25.5780   71.0370 C.3   161  PRO161      0.1536
     66  C         41.5540   24.7450   70.3320 C.2   161  PRO161      0.2598
     67  O         41.3240   24.9090   69.1170 O.2   161  PRO161     -0.2715
     68  CB        42.1230   27.0100   71.1310 C.3   161  PRO161      0.0310
     69  CG        43.4140   27.8150   71.1500 C.3   161  PRO161      0.0237
     70  CD        44.2360   27.1550   70.0190 C.3   161  PRO161      0.0939
     71  N         40.9350   23.8260   71.0590 N.am  162  MET162     -0.1978
     72  CA        39.9070   22.9700   70.4510 C.3   162  MET162      0.1605
     73  C         38.8450   23.7940   69.7660 C.2   162  MET162      0.2287
     74  O         38.5380   23.4760   68.6430 O.2   162  MET162     -0.2864
     75  CB        39.2600   22.1230   71.5070 C.3   162  MET162      0.0413
     76  CG        40.3150   21.1960   72.1650 C.3   162  MET162      0.0598
     77  SD        40.6860   19.8570   71.0520 S.3   162  MET162     -0.1393
     78  CE        39.3650   18.8730   71.7430 C.3   162  MET162      0.0692
     79  N         41.1780   15.5940   70.6660 N.3   381  GLY381     -0.1210
     80  CA        42.1600   16.6860   70.6180 C.3   381  GLY381      0.1956
     81  C         43.5260   16.1180   70.2380 C.2   381  GLY381      0.2612
     82  O         43.9020   14.9900   70.6830 O.2   381  GLY381     -0.2717
     83  N         44.2340   16.8810   69.3880 N.am  382  THR382     -0.1952
     84  CA        45.5510   16.5750   68.8210 C.3   382  THR382      0.1897
     85  C         45.4710   15.7420   67.5660 C.2   382  THR382      0.2313
     86  O         46.4830   15.2530   67.0400 O.2   382  THR382     -0.2863
     87  CB        46.6600   16.0890   69.7560 C.3   382  THR382      0.1794
     88  OG1       46.4210   14.7160   70.1070 O.3   382  THR382     -0.2208
     89  CG2       46.7930   16.9940   71.0080 C.3   382  THR382      0.0378
@<TRIPOS>BOND
     1    63    61    1
     2    61    60    1
     3    62    60    1
     4    86    85    2
     5    60    57    1
     6    85    84    1
     7    42    43    1
     8    47    46    1
     9    57    56    1
    10    57    58    1
    11    74    73    2
    12    84    83    1
    13    84    87    1
    14    56    50   am
    15    43    46    1
    16    43    44    1
    17    67    66    2
    18    83    81   am
    19    58    59    2
    20    58    64   am
    21    48    44   am
    22    48    49    1
    23    87    88    1
    24    87    89    1
    25    73    72    1
    26    70    64    1
    27    70    69    1
    28    44    45    2
    29    50    49    1
    30    50    51    2
    31    64    65    1
    32    81    80    1
    33    81    82    2
    34    66    65    1
    35    66    71   am
    36    72    71    1
    37    72    75    1
    38    80    79    1
    39    49    52    1
    40    52    53    1
    41    65    68    1
    42    77    78    1
    43    77    76    1
    44    68    69    1
    45    53    54    1
    46    53    55    1
    47    75    76    1
    48    22    21    1
    49    13    12    1
    50    13    14    1
    51    21    18    1
    52    12     9    1
    53    17    18    1
    54    17    10   am
    55    19    18    1
    56    19    20    2
    57    16    14   am
    58    14    15    2
    59     9     8    1
    60     9    10    1
    61    10    11    2
    62    31    32    1
    63    31    30    1
    64    36    37    2
    65    36    35    1
    66    34    32   am
    67    34    35    1
    68    32    33    2
    69    35    38    1
    70    38    39    1
    71    39    40    1
    72     6     5    1
    73     7     5    1
    74    28    27    1
    75     5     2    1
    76    40    41    1
    77     2     3    1
    78     2     1    1
    79     4     3    2
    80    27    29    1
    81    27    24    1
    82    25    24    1
    83    25    26    2
    84    24    23    1
