@<TRIPOS>MOLECULE
tmp/1agmA00.pdb
 202 202 0 0 0
SMALL
GASTEIGER

@<TRIPOS>ATOM
      1  N         26.0450   24.3540   14.5250 N.3    39  ALA39      -0.1245
      2  CA        27.3500   24.6170   13.9150 C.3    39  ALA39       0.1562
      3  C         27.4050   26.0130   13.3180 C.2    39  ALA39       0.2260
      4  O         28.4400   26.7140   13.4390 O.2    39  ALA39      -0.2867
      5  CB        27.6750   23.5730   12.8720 C.3    39  ALA39       0.0290
      6  N         24.6380   24.3090    4.0420 N.3    47  ASP47      -0.1225
      7  CA        23.6380   24.0120    5.0590 C.3    47  ASP47       0.1805
      8  C         24.3600   23.3770    6.2640 C.2    47  ASP47       0.2597
      9  O         24.6880   22.1700    6.3040 O.2    47  ASP47      -0.2718
     10  CB        22.5340   23.1240    4.5090 C.3    47  ASP47       0.1424
     11  CG        21.4870   22.6830    5.5250 C.2    47  ASP47       0.3668
     12  OD1       21.2940   23.3980    6.5410 O.co2  47  ASP47      -0.2456
     13  OD2       20.8860   21.6040    5.2980 O.co2  47  ASP47      -0.2456
     14  N         24.5490   24.1800    7.2770 N.am   48  TYR48      -0.1976
     15  CA        25.2120   23.7390    8.5030 C.3    48  TYR48       0.1639
     16  C         24.2580   23.8400    9.6850 C.2    48  TYR48       0.2290
     17  O         24.7440   23.7770   10.8250 O.2    48  TYR48      -0.2864
     18  CB        26.4870   24.5440    8.7330 C.3    48  TYR48       0.0560
     19  CG        27.7270   24.1400    8.0030 C.ar   48  TYR48      -0.0198
     20  CD1       27.7890   23.6260    6.7060 C.ar   48  TYR48      -0.0009
     21  CD2       28.9490   24.3350    8.6760 C.ar   48  TYR48      -0.0009
     22  CE1       28.9990   23.3090    6.0910 C.ar   48  TYR48       0.0417
     23  CE2       30.1640   24.0420    8.0690 C.ar   48  TYR48       0.0417
     24  CZ        30.1860   23.5470    6.7970 C.ar   48  TYR48       0.1957
     25  OH        31.4100   23.2910    6.2760 O.3    48  TYR48      -0.2866
     26  N         26.4930   18.9850   15.5190 N.3    52  TRP52      -0.1241
     27  CA        27.5850   18.0050   15.4380 C.3    52  TRP52       0.1605
     28  C         28.0660   17.6950   16.8600 C.2    52  TRP52       0.2264
     29  O         28.2350   18.6410   17.6580 O.2    52  TRP52      -0.2867
     30  CB        28.7560   18.5390   14.6240 C.3    52  TRP52       0.0550
     31  CG        28.7060   18.3370   13.1660 C.ar   52  TRP52       0.0003
     32  CD1       29.3440   17.3410   12.4660 C.ar   52  TRP52       0.0946
     33  CD2       28.0570   19.1290   12.1480 C.ar   52  TRP52       0.0152
     34  NE1       29.1070   17.4710   11.1150 N.ar   52  TRP52      -0.2442
     35  CE2       28.3400   18.5760   10.9040 C.ar   52  TRP52       0.0810
     36  CE3       27.2600   20.2890   12.2300 C.ar   52  TRP52       0.0012
     37  CZ2       27.8800   19.0920    9.7070 C.ar   52  TRP52       0.0191
     38  CZ3       26.7680   20.8070   11.0330 C.ar   52  TRP52       0.0001
     39  CH2       27.0760   20.2320    9.7920 C.ar   52  TRP52       0.0015
     40  N         31.0260   16.7300   17.7520 N.3    54  ARG54      -0.1182
     41  CA        32.3810   17.3170   17.8350 C.3    54  ARG54       0.1910
     42  C         32.2970   18.8050   18.1550 C.2    54  ARG54       0.2634
     43  O         32.8000   19.2650   19.1930 O.2    54  ARG54      -0.2714
     44  CB        33.1800   17.0310   16.5630 C.2    54  ARG54       0.0007
     45  CG        34.4000   17.9130   16.3200 C.2    54  ARG54       0.0176
     46  CD        35.1910   17.5730   15.1110 C.3    54  ARG54       0.2464
     47  NE        34.3420   17.5060   13.9230 N.pl3  54  ARG54      -0.0815
     48  CZ        33.8230   16.4110   13.3800 C.cat  54  ARG54       0.5349
     49  NH1       34.1220   15.2150   13.8740 N.pl3  54  ARG54       0.1354
     50  NH2       32.9740   16.4850   12.3820 N.pl3  54  ARG54       0.1354
     51  N         31.7150   19.5770   17.2590 N.am   55  ASP55      -0.1971
     52  CA        31.5760   21.0390   17.3800 C.3    55  ASP55       0.1709
     53  C         31.0400   21.4030   18.7630 C.2    55  ASP55       0.2293
     54  O         31.6320   22.2570   19.4440 O.2    55  ASP55      -0.2864
     55  CB        30.6970   21.6390   16.2840 C.3    55  ASP55       0.1436
     56  CG        31.2530   21.5310   14.8950 C.2    55  ASP55       0.3671
     57  OD1       31.5870   20.4040   14.4670 O.co2  55  ASP55      -0.2456
     58  OD2       31.3450   22.5560   14.1950 O.co2  55  ASP55      -0.2456
     59  N         23.0290   10.3150    3.7990 N.3   118  SER118     -0.1202
     60  CA        24.3910    9.8050    3.6830 C.3   118  SER118      0.2020
     61  C         25.3410   10.8040    4.3390 C.2   118  SER118      0.2619
     62  O         25.2340   12.0370    4.2060 O.2   118  SER118     -0.2717
     63  CB        24.7480    9.5710    2.2220 C.3   118  SER118      0.2103
     64  OG        24.0830    8.3750    1.7690 O.3   118  SER118     -0.2182
     65  N         26.2950   10.2370    5.0570 N.am  119  TRP119     -0.1961
     66  CA        27.2750   11.0760    5.7750 C.3   119  TRP119      0.1771
     67  C         28.4940   10.2150    6.0520 C.2   119  TRP119      0.2620
     68  O         28.3560    8.9800    6.0000 O.2   119  TRP119     -0.2715
     69  CB        26.5970   11.6270    7.0680 C.3   119  TRP119      0.0590
     70  CG        27.2480   12.9390    7.4180 C.ar  119  TRP119      0.0006
     71  CD1       28.1380   13.1710    8.4160 C.ar  119  TRP119      0.0946
     72  CD2       27.0780   14.1790    6.7240 C.ar  119  TRP119      0.0152
     73  NE1       28.5090   14.4780    8.4150 N.ar  119  TRP119     -0.2442
     74  CE2       27.8930   15.1190    7.3770 C.ar  119  TRP119      0.0810
     75  CE3       26.3180   14.5770    5.6330 C.ar  119  TRP119      0.0012
     76  CZ2       27.9750   16.4450    6.9700 C.ar  119  TRP119      0.0191
     77  CZ3       26.3870   15.9040    5.2240 C.ar  119  TRP119      0.0001
     78  CH2       27.1950   16.8270    5.8950 C.ar  119  TRP119      0.0015
     79  N         29.6320   10.8460    6.3120 N.am  120  GLY120     -0.1954
     80  CA        30.8450   10.0250    6.5920 C.3   120  GLY120      0.1869
     81  C         30.6870    9.6520    8.0820 C.2   120  GLY120      0.2309
     82  O         31.0560   10.4630    8.9420 O.2   120  GLY120     -0.2863
     83  N         35.6220    7.8860   10.2010 N.3   174  TYR174     -0.1241
     84  CA        35.9730    9.1140    9.4850 C.3   174  TYR174      0.1605
     85  C         36.7360   10.0410   10.3940 C.2   174  TYR174      0.2264
     86  O         36.5410    9.9800   11.6150 O.2   174  TYR174     -0.2867
     87  CB        34.7180    9.7630    8.8720 C.3   174  TYR174      0.0534
     88  CG        34.2730    8.9990    7.6340 C.ar  174  TYR174     -0.0201
     89  CD1       33.4630    7.8660    7.7250 C.ar  174  TYR174     -0.0009
     90  CD2       34.7120    9.4020    6.3850 C.ar  174  TYR174     -0.0009
     91  CE1       33.0880    7.1440    6.5890 C.ar  174  TYR174      0.0417
     92  CE2       34.3120    8.7240    5.2250 C.ar  174  TYR174      0.0417
     93  CZ        33.4880    7.6160    5.3420 C.ar  174  TYR174      0.1957
     94  OH        33.1370    6.9540    4.1960 O.3   174  TYR174     -0.2866
     95  N         38.0340   13.9900   11.6780 N.3   176  LEU176     -0.1231
     96  CA        37.2980   15.1890   12.0860 C.3   176  LEU176      0.1693
     97  C         36.8490   15.9920   10.8850 C.2   176  LEU176      0.2592
     98  O         35.9600   16.8410   11.0240 O.2   176  LEU176     -0.2718
     99  CB        38.1780   15.9860   13.0580 C.3   176  LEU176      0.0284
    100  CG        39.2420   16.9060   12.4620 C.3   176  LEU176      0.0019
    101  CD1       39.7720   17.8520   13.5140 C.3   176  LEU176      0.0001
    102  CD2       40.3890   16.1080   11.8370 C.3   176  LEU176      0.0001
    103  N         37.4930   15.8000    9.7180 N.am  177  TRP177     -0.1962
    104  CA        37.0600   16.6200    8.5540 C.3   177  TRP177      0.1771
    105  C         35.9450   15.8930    7.8000 C.2   177  TRP177      0.2620
    106  O         35.4380   16.3710    6.7700 O.2   177  TRP177     -0.2715
    107  CB        38.1960   17.0450    7.6880 C.3   177  TRP177      0.0590
    108  CG        39.3820   17.7290    8.2640 C.ar  177  TRP177      0.0006
    109  CD1       40.6840   17.3990    7.9620 C.ar  177  TRP177      0.0946
    110  CD2       39.4370   18.8760    9.1270 C.ar  177  TRP177      0.0152
    111  NE1       41.5270   18.2590    8.6180 N.ar  177  TRP177     -0.2442
    112  CE2       40.8190   19.1800    9.3280 C.ar  177  TRP177      0.0810
    113  CE3       38.4860   19.6650    9.7480 C.ar  177  TRP177      0.0012
    114  CZ2       41.2540   20.2330   10.1260 C.ar  177  TRP177      0.0191
    115  CZ3       38.9100   20.7260   10.5550 C.ar  177  TRP177      0.0001
    116  CH2       40.2520   21.0270   10.7400 C.ar  177  TRP177      0.0015
    117  N         35.5840   14.7160    8.2890 N.am  178  GLU178     -0.1963
    118  CA        34.4890   13.8960    7.7200 C.3   178  GLU178      0.1733
    119  C         34.7150   13.4260    6.3120 C.2   178  GLU178      0.2616
    120  O         33.7660   13.2770    5.4960 O.2   178  GLU178     -0.2715
    121  CB        33.1870   14.7300    7.7590 C.3   178  GLU178      0.0429
    122  CG        32.9810   15.6340    8.9900 C.3   178  GLU178      0.1163
    123  CD        31.6260   16.2440    9.0500 C.2   178  GLU178      0.3649
    124  OE1       31.3580   17.2760    8.4610 O.co2 178  GLU178     -0.2457
    125  OE2       30.7720   15.5920    9.6950 O.co2 178  GLU178     -0.2457
    126  N         35.9830   13.1510    5.9670 N.am  179  GLU179     -0.1977
    127  CA        36.2620   12.7340    4.5760 C.3   179  GLU179      0.1602
    128  C         37.1180   11.5200    4.4040 C.2   179  GLU179      0.2287
    129  O         37.0450   10.8480    3.3690 O.2   179  GLU179     -0.2864
    130  CB        37.0300   13.9080    3.8810 C.3   179  GLU179      0.0415
    131  CG        36.4070   15.2930    4.0480 C.3   179  GLU179      0.1163
    132  CD        37.3220   16.4280    3.6750 C.2   179  GLU179      0.3649
    133  OE1       38.5120   16.3960    3.9470 O.co2 179  GLU179     -0.2457
    134  OE2       36.7650   17.3980    3.0970 O.co2 179  GLU179     -0.2457
    135  N         43.4110   23.4020    6.1410 N.3   304  ARG304     -0.1245
    136  CA        43.2990   22.0870    6.7890 C.3   304  ARG304      0.1563
    137  C         44.4650   21.1950    6.3810 C.2   304  ARG304      0.2260
    138  O         45.2210   20.7640    7.2770 O.2   304  ARG304     -0.2867
    139  CB        41.9590   21.3960    6.5310 C.3   304  ARG304      0.0307
    140  CG        40.7280   22.2270    6.8660 C.3   304  ARG304      0.0489
    141  CD        39.4740   21.4300    6.7530 C.3   304  ARG304      0.2205
    142  NE        39.1250   21.1010    5.3750 N.pl3 304  ARG304     -0.0865
    143  CZ        38.0460   20.4120    5.0030 C.cat 304  ARG304      0.5346
    144  NH1       37.1400   19.9930    5.9010 N.pl3 304  ARG304      0.1354
    145  NH2       37.9120   20.0690    3.7260 N.pl3 304  ARG304      0.1354
    146  N         37.9790   21.5710   -0.7820 N.3   310  TYR310     -0.1241
    147  CA        36.6600   21.9960   -0.3060 C.3   310  TYR310      0.1605
    148  C         36.6030   23.5090   -0.4880 C.2   310  TYR310      0.2264
    149  O         37.3930   24.2590    0.0750 O.2   310  TYR310     -0.2867
    150  CB        36.3370   21.5290    1.0790 C.3   310  TYR310      0.0534
    151  CG        34.9900   21.8340    1.6930 C.ar  310  TYR310     -0.0201
    152  CD1       33.7800   21.4840    1.1170 C.ar  310  TYR310     -0.0009
    153  CD2       34.9660   22.4640    2.9420 C.ar  310  TYR310     -0.0009
    154  CE1       32.5410   21.7480    1.7300 C.ar  310  TYR310      0.0417
    155  CE2       33.7610   22.7570    3.5800 C.ar  310  TYR310      0.0417
    156  CZ        32.5500   22.3820    2.9630 C.ar  310  TYR310      0.1957
    157  OH        31.4280   22.6810    3.6560 O.3   310  TYR310     -0.2866
    158  N         41.5790   28.3860    6.9950 N.3   316  TRP316     -0.1241
    159  CA        40.4200   28.3590    7.9220 C.3   316  TRP316      0.1605
    160  C         40.7500   29.2050    9.1520 C.2   316  TRP316      0.2264
    161  O         41.9030   29.0820    9.6810 O.2   316  TRP316     -0.2867
    162  CB        40.1010   26.9220    8.3400 C.3   316  TRP316      0.0550
    163  CG        39.3940   26.0730    7.3380 C.ar  316  TRP316      0.0003
    164  CD1       39.5990   25.9960    5.9770 C.ar  316  TRP316      0.0946
    165  CD2       38.3210   25.1510    7.6180 C.ar  316  TRP316      0.0152
    166  NE1       38.7380   25.0990    5.3850 N.ar  316  TRP316     -0.2442
    167  CE2       37.9410   24.5660    6.3870 C.ar  316  TRP316      0.0810
    168  CE3       37.6780   24.7740    8.7860 C.ar  316  TRP316      0.0012
    169  CZ2       36.9240   23.6250    6.2920 C.ar  316  TRP316      0.0191
    170  CZ3       36.6770   23.8310    8.7120 C.ar  316  TRP316      0.0001
    171  CH2       36.3150   23.2730    7.4740 C.ar  316  TRP316      0.0015
    172  N         33.7520   30.1630    8.4010 N.3   399  GLU399     -0.1245
    173  CA        34.4920   28.9060    8.4050 C.3   399  GLU399      0.1567
    174  C         35.8440   29.1620    7.6950 C.2   399  GLU399      0.2260
    175  O         36.9040   28.9480    8.3110 O.2   399  GLU399     -0.2867
    176  CB        33.8170   27.7590    7.6910 C.3   399  GLU399      0.0388
    177  CG        34.5120   26.4050    7.7160 C.3   399  GLU399      0.1160
    178  CD        33.7550   25.3230    6.9990 C.2   399  GLU399      0.3649
    179  OE1       33.8050   25.4430    5.7510 O.co2 399  GLU399     -0.2457
    180  OE2       33.1850   24.4320    7.6010 O.co2 399  GLU399     -0.2457
    181  N         30.5460   30.6810   12.1590 N.3   414  LEU414     -0.1245
    182  CA        30.7900   29.2890   12.5710 C.3   414  LEU414      0.1561
    183  C         31.1610   29.2670   14.0480 C.2   414  LEU414      0.2260
    184  O         32.1500   29.8860   14.4650 O.2   414  LEU414     -0.2867
    185  CB        31.7750   28.6150   11.6290 C.3   414  LEU414      0.0270
    186  CG        31.9690   27.1280   11.8800 C.3   414  LEU414      0.0019
    187  CD1       30.9150   26.3460   11.1100 C.3   414  LEU414      0.0001
    188  CD2       33.4090   26.7050   11.5520 C.3   414  LEU414      0.0001
    189  N         32.4030   27.0600   15.8920 N.3   416  TRP416     -0.1241
    190  CA        33.7410   26.5040   16.1510 C.3   416  TRP416      0.1605
    191  C         34.7790   27.6160   15.9690 C.2   416  TRP416      0.2264
    192  O         35.6590   27.6790   16.8510 O.2   416  TRP416     -0.2867
    193  CB        33.9810   25.1740   15.4990 C.3   416  TRP416      0.0550
    194  CG        35.2570   24.4490   15.7870 C.ar  416  TRP416      0.0003
    195  CD1       36.2490   24.7390   16.7180 C.ar  416  TRP416      0.0946
    196  CD2       35.6700   23.2290   15.1410 C.ar  416  TRP416      0.0152
    197  NE1       37.2390   23.7960   16.6590 N.ar  416  TRP416     -0.2442
    198  CE2       36.9420   22.8940   15.6740 C.ar  416  TRP416      0.0810
    199  CE3       35.1190   22.4430   14.1420 C.ar  416  TRP416      0.0012
    200  CZ2       37.6290   21.7590   15.2580 C.ar  416  TRP416      0.0191
    201  CZ3       35.8130   21.3220   13.6930 C.ar  416  TRP416      0.0001
    202  CH2       37.0520   20.9770   14.2560 C.ar  416  TRP416      0.0015
@<TRIPOS>BOND
     1   146   147    1
     2   148   147    1
     3   148   149    2
     4   147   150    1
     5   150   151    1
     6   152   151   ar
     7   152   154   ar
     8   151   153   ar
     9   154   156   ar
    10    64    63    1
    11    63    60    1
    12   153   155   ar
    13   156   155   ar
    14   156   157    1
    15   134   132   ar
    16   129   128    2
    17   132   133   ar
    18   132   131    1
    19    60    59    1
    20    60    61    1
    21   145   143    1
    22   130   131    1
    23   130   127    1
    24     6     7    1
    25    94    93    1
    26    62    61    2
    27    61    65   am
    28   128   127    1
    29    10     7    1
    30    10    11    1
    31   127   126    1
    32   143   142    2
    33   143   144    1
    34    65    66    1
    35     7     8    1
    36    77    75   ar
    37    77    78   ar
    38    92    93   ar
    39    92    90   ar
    40    13    11   ar
    41    93    91   ar
    42   142   141    1
    43   166   164   ar
    44   166   167   ar
    45   120   119    2
    46    11    12   ar
    47    75    72   ar
    48   179   178   ar
    49    66    67    1
    50    66    69    1
    51    78    76   ar
    52   126   119   am
    53   164   163   ar
    54    68    67    2
    55    67    79   am
    56    22    20   ar
    57    22    24   ar
    58   135   136    1
    59     8     9    2
    60     8    14   am
    61    25    24    1
    62   169   167   ar
    63   169   171   ar
    64   119   118    1
    65    79    80    1
    66   137   136    1
    67   137   138    2
    68    90    88   ar
    69   167   165   ar
    70   139   136    1
    71   139   140    1
    72    91    89   ar
    73    80    81    1
    74    20    19   ar
    75    72    74   ar
    76    72    70   ar
    77   141   140    1
    78   106   105    2
    79    24    23   ar
    80    76    74   ar
    81   158   159    1
    82   178   180   ar
    83   178   177    1
    84    69    70    1
    85    14    15    1
    86   163   165   ar
    87   163   162    1
    88    74    73   ar
    89    70    71   ar
    90   171   170   ar
    91   165   168   ar
    92    88    89   ar
    93    88    87    1
    94   107   108    1
    95   107   104    1
    96   176   177    1
    97   176   173    1
    98   174   175    2
    99   174   173    1
   100   118   121    1
   101   118   117    1
   102   121   122    1
   103   105   117   am
   104   105   104    1
   105   159   162    1
   106   159   160    1
   107   109   108   ar
   108   109   111   ar
   109    19    21   ar
   110    19    18    1
   111    23    21   ar
   112    81    82    2
   113   108   110   ar
   114   172   173    1
   115    73    71   ar
   116   124   123   ar
   117    15    18    1
   118    15    16    1
   119   104   103    1
   120   111   112   ar
   121   170   168   ar
   122    87    84    1
   123   122   123    1
   124   123   125   ar
   125   110   112   ar
   126   110   113   ar
   127   160   161    2
   128   112   114   ar
   129    84    83    1
   130    84    85    1
   131    16    17    2
   132    37    39   ar
   133    37    35   ar
   134   103    97   am
   135   113   115   ar
   136    39    38   ar
   137   114   116   ar
   138    85    86    2
   139   115   116   ar
   140    97    98    2
   141    97    96    1
   142    35    34   ar
   143    35    33   ar
   144    38    36   ar
   145   187   186    1
   146    34    32   ar
   147   188   186    1
   148   185   186    1
   149   185   182    1
   150    95    96    1
   151   102   100    1
   152    96    99    1
   153    33    36   ar
   154    33    31   ar
   155   181   182    1
   156    50    48    1
   157   100    99    1
   158   100   101    1
   159    32    31   ar
   160   182   183    1
   161     5     2    1
   162    31    30    1
   163     3     4    2
   164     3     2    1
   165    48    49    1
   166    48    47    2
   167   201   199   ar
   168   201   202   ar
   169     2     1    1
   170    47    46    1
   171   183   184    2
   172   199   196   ar
   173    58    56   ar
   174   202   200   ar
   175    57    56   ar
   176    30    27    1
   177    56    55    1
   178    46    45    1
   179   196   198   ar
   180   196   194   ar
   181   200   198   ar
   182    27    26    1
   183    27    28    1
   184   193   194    1
   185   193   190    1
   186   198   197   ar
   187   194   195   ar
   188   189   190    1
   189   191   190    1
   190   191   192    2
   191    55    52    1
   192    45    44    2
   193    44    41    1
   194   197   195   ar
   195    28    29    2
   196    51    52    1
   197    51    42   am
   198    52    53    1
   199    40    41    1
   200    41    42    1
   201    42    43    2
   202    53    54    2
