@<TRIPOS>MOLECULE
tmp/1agrA00.pdb
 191 182 0 0 0
SMALL
GASTEIGER

@<TRIPOS>ATOM
      1  N         31.3090   11.2870   38.7140 N.3    38  GLY38      -0.1210
      2  CA        29.8890   11.4840   38.9280 C.3    38  GLY38       0.1956
      3  C         29.0480   10.7540   37.9310 C.2    38  GLY38       0.2612
      4  O         29.4460   10.5800   36.7850 O.2    38  GLY38      -0.2717
      5  N         27.8630   10.3500   38.3670 N.am   39  GLU39      -0.1965
      6  CA        26.9450    9.5840   37.5300 C.3    39  GLU39       0.1733
      7  C         27.4670    8.1620   37.2560 C.2    39  GLU39       0.2617
      8  O         26.9650    7.4780   36.3700 O.2    39  GLU39      -0.2715
      9  CB        26.6850   10.3130   36.2120 C.3    39  GLU39       0.0429
     10  CG        26.1050   11.6950   36.3510 C.3    39  GLU39       0.1163
     11  CD        26.1280   12.4550   35.0370 C.2    39  GLU39       0.3649
     12  OE1       25.5630   11.9270   34.0600 O.co2  39  GLU39      -0.2457
     13  OE2       26.7250   13.5610   34.9620 O.co2  39  GLU39      -0.2457
     14  N         28.4390    7.7070   38.0440 N.am   40  SER40      -0.1936
     15  CA        29.0220    6.3800   37.8600 C.3    40  SER40       0.2055
     16  C         28.1210    5.2260   38.3130 C.2    40  SER40       0.2644
     17  O         28.0930    4.2000   37.6610 O.2    40  SER40      -0.2714
     18  CB        30.3500    6.2940   38.5760 C.3    40  SER40       0.2130
     19  OG        30.1460    6.5400   39.9560 O.3    40  SER40      -0.2179
     20  N         27.3790    5.4020   39.4060 N.am   41  GLY41      -0.1939
     21  CA        26.5060    4.3470   39.9000 C.3    41  GLY41       0.2014
     22  C         26.5210    4.1560   41.4160 C.2    41  GLY41       0.2639
     23  O         25.6710    3.4460   41.9530 O.2    41  GLY41      -0.2714
     24  N         27.4570    4.8280   42.0950 N.am   42  LYS42      -0.1963
     25  CA        27.6330    4.7750   43.5530 C.3    42  LYS42       0.1728
     26  C         26.3510    4.8180   44.3600 C.2    42  LYS42       0.2617
     27  O         26.1790    4.0910   45.3190 O.2    42  LYS42      -0.2715
     28  CB        28.5360    5.9100   44.0320 C.3    42  LYS42       0.0311
     29  CG        29.8580    6.0590   43.2760 C.3    42  LYS42       0.0038
     30  CD        30.6770    7.2520   43.8160 C.3    42  LYS42       0.0206
     31  CE        30.0570    8.6360   43.5080 C.3    42  LYS42       0.1093
     32  NZ        30.1020    8.9910   42.0660 N.3    42  LYS42      -0.1314
     33  N         25.4490    5.7000   44.0160 N.am   43  SER43      -0.1936
     34  CA        24.2320    5.7650   44.7850 C.3    43  SER43       0.2055
     35  C         23.3380    4.5760   44.4650 C.2    43  SER43       0.2643
     36  O         22.5630    4.1420   45.3250 O.2    43  SER43      -0.2714
     37  CB        23.5130    7.1070   44.5620 C.3    43  SER43       0.2130
     38  OG        24.3120    8.2080   45.0180 O.3    43  SER43      -0.2179
     39  N         23.4280    4.0590   43.2350 N.am   44  THR44      -0.1950
     40  CA        22.6200    2.8960   42.8020 C.3    44  THR44       0.1897
     41  C         23.0360    1.5850   43.5180 C.2    44  THR44       0.2313
     42  O         22.1980    0.8060   43.9900 O.2    44  THR44      -0.2863
     43  CB        22.7130    2.6860   41.2960 C.3    44  THR44       0.1794
     44  OG1       22.4590    3.9220   40.6280 O.3    44  THR44      -0.2208
     45  CG2       21.6890    1.6720   40.8400 C.3    44  THR44       0.0378
     46  N         21.5940    1.8340   46.8580 N.3    47  LYS47      -0.1245
     47  CA        20.1720    1.4720   46.9130 C.3    47  LYS47       0.1561
     48  C         20.0980   -0.0470   46.9710 C.2    47  LYS47       0.2260
     49  O         19.2930   -0.6020   47.7200 O.2    47  LYS47      -0.2867
     50  CB        19.3760    1.9470   45.6920 C.3    47  LYS47       0.0271
     51  CG        19.1000    3.4140   45.5990 C.3    47  LYS47       0.0035
     52  CD        17.8320    3.6180   44.7720 C.3    47  LYS47       0.0206
     53  CE        17.5000    5.0900   44.5380 C.3    47  LYS47       0.1093
     54  NZ        18.5420    5.7750   43.7240 N.3    47  LYS47      -0.1314
     55  N         20.1230   11.7820   30.6980 N.3   145  ASN145     -0.1225
     56  CA        20.0540   10.8400   31.8140 C.3   145  ASN145      0.1785
     57  C         20.0250    9.4360   31.2790 C.2   145  ASN145      0.2597
     58  O         19.1700    9.1420   30.4370 O.2   145  ASN145     -0.2718
     59  CB        18.7540   11.0450   32.5780 C.3   145  ASN145      0.1169
     60  CG        18.8630   12.0940   33.6310 C.2   145  ASN145      0.2627
     61  OD1       19.9630   12.4950   34.0120 O.2   145  ASN145     -0.2716
     62  ND2       17.7210   12.5290   34.1460 N.am  145  ASN145     -0.0877
     63  N         20.8820    8.5590   31.8190 N.am  146  ASP146     -0.1960
     64  CA        20.9340    7.1510   31.4070 C.3   146  ASP146      0.1840
     65  C         19.5610    6.5000   31.2930 C.2   146  ASP146      0.2622
     66  O         19.3100    5.7720   30.3430 O.2   146  ASP146     -0.2715
     67  CB        21.7860    6.3310   32.3510 C.3   146  ASP146      0.1450
     68  CG        23.2700    6.4250   32.0380 C.2   146  ASP146      0.3671
     69  OD1       23.6430    6.3270   30.8400 O.co2 146  ASP146     -0.2456
     70  OD2       24.0680    6.5680   32.9980 O.co2 146  ASP146     -0.2456
     71  N         18.6570    6.8020   32.2200 N.am  147  SER147     -0.1950
     72  CA        17.3230    6.2190   32.2060 C.3   147  SER147      0.1924
     73  C         16.3310    6.9720   31.3420 C.2   147  SER147      0.2314
     74  O         15.1080    6.8140   31.5140 O.2   147  SER147     -0.2863
     75  CB        16.7690    6.1110   33.6220 C.3   147  SER147      0.2116
     76  OG        17.7200    5.5010   34.4800 O.3   147  SER147     -0.2180
     77  N         15.2520    2.4560   41.0520 N.3   171  LEU171     -0.1231
     78  CA        16.6880    2.2170   40.8740 C.3   171  LEU171      0.1693
     79  C         17.2030    3.0010   39.6870 C.2   171  LEU171      0.2592
     80  O         18.3910    3.2690   39.5580 O.2   171  LEU171     -0.2718
     81  CB        16.9850    0.7200   40.6820 C.3   171  LEU171      0.0284
     82  CG        17.1250   -0.1770   41.9130 C.3   171  LEU171      0.0019
     83  CD1       17.1030   -1.6270   41.5000 C.3   171  LEU171      0.0001
     84  CD2       18.4090    0.1210   42.6700 C.3   171  LEU171      0.0001
     85  N         16.2870    3.3300   38.8010 N.am  172  ARG172     -0.1966
     86  CA        16.6170    4.0570   37.5940 C.3   172  ARG172      0.1729
     87  C         16.6490    5.5630   37.8130 C.2   172  ARG172      0.2617
     88  O         17.1870    6.2880   36.9770 O.2   172  ARG172     -0.2715
     89  CB        15.6070    3.7360   36.4930 C.3   172  ARG172      0.0348
     90  CG        15.6920    2.3330   35.9720 C.3   172  ARG172      0.0492
     91  CD        16.9850    2.0440   35.2450 C.3   172  ARG172      0.2205
     92  NE        16.7150    0.9690   34.3020 N.pl3 172  ARG172     -0.0865
     93  CZ        17.4380    0.7050   33.2300 C.cat 172  ARG172      0.5346
     94  NH1       18.5160    1.4270   32.9450 N.pl3 172  ARG172      0.1354
     95  NH2       17.0300   -0.2370   32.4040 N.pl3 172  ARG172      0.1354
     96  N         16.0470    6.0150   38.9180 N.am  173  THR173     -0.1937
     97  CA        15.9420    7.4350   39.1960 C.3   173  THR173      0.2028
     98  C         17.3200    8.0900   39.2260 C.2   173  THR173      0.2642
     99  O         18.3340    7.4180   39.4210 O.2   173  THR173     -0.2714
    100  CB        15.1950    7.7270   40.4960 C.3   173  THR173      0.1808
    101  OG1       15.8810    7.1370   41.6060 O.3   173  THR173     -0.2208
    102  CG2       13.7730    7.2230   40.4320 C.3   173  THR173      0.0379
    103  N         17.3520    9.3820   38.9140 N.am  174  ARG174     -0.1963
    104  CA        18.5870   10.1590   38.9430 C.3   174  ARG174      0.1729
    105  C         18.3480   11.2060   40.0180 C.2   174  ARG174      0.2616
    106  O         17.2340   11.6760   40.1900 O.2   174  ARG174     -0.2715
    107  CB        18.8660   10.7840   37.5750 C.3   174  ARG174      0.0348
    108  CG        20.1590   11.5430   37.4200 C.3   174  ARG174      0.0492
    109  CD        21.1950   11.0670   38.3620 C.3   174  ARG174      0.2205
    110  NE        22.4690   11.7740   38.2470 N.pl3 174  ARG174     -0.0865
    111  CZ        23.4190   11.7530   39.1840 C.cat 174  ARG174      0.5346
    112  NH1       23.2470   11.0490   40.2930 N.pl3 174  ARG174      0.1354
    113  NH2       24.4900   12.5170   39.0680 N.pl3 174  ARG174      0.1354
    114  N         19.3570   11.4210   40.8450 N.am  175  VAL175     -0.1977
    115  CA        19.3220   12.4060   41.9160 C.3   175  VAL175      0.1596
    116  C         20.7810   12.6170   42.2540 C.2   175  VAL175      0.2287
    117  O         21.3880   11.8050   42.9490 O.2   175  VAL175     -0.2864
    118  CB        18.5960   11.9140   43.1450 C.3   175  VAL175      0.0276
    119  CG1       18.9990   12.7060   44.3570 C.3   175  VAL175      0.0022
    120  CG2       17.0920   11.9810   42.9730 C.3   175  VAL175      0.0022
    121  N         24.1410   13.4300   43.8200 N.3   177  THR177     -0.1218
    122  CA        24.3890   13.3300   45.2460 C.3   177  THR177      0.1862
    123  C         25.3600   14.4190   45.5900 C.2   177  THR177      0.2287
    124  O         26.4080   14.5500   44.9650 O.2   177  THR177     -0.2866
    125  CB        25.0240   11.9600   45.6670 C.3   177  THR177      0.1770
    126  OG1       24.2640   10.8590   45.1330 O.3   177  THR177     -0.2211
    127  CG2       25.0870   11.8360   47.1950 C.3   177  THR177      0.0375
    128  N         30.3570   12.6650   43.0390 N.3   199  GLY199     -0.1210
    129  CA        31.4660   12.3250   42.1650 C.3   199  GLY199      0.1956
    130  C         32.0490   13.5010   41.4200 C.2   199  GLY199      0.2611
    131  O         33.2140   13.4570   40.9690 O.2   199  GLY199     -0.2717
    132  N         31.2410   14.5590   41.2960 N.am  200  GLN200     -0.1979
    133  CA        31.6770   15.7530   40.5880 C.3   200  GLN200      0.1601
    134  C         32.9520   16.4010   41.1190 C.2   200  GLN200      0.2287
    135  O         33.3140   16.2650   42.3150 O.2   200  GLN200     -0.2864
    136  CB        30.5670   16.7580   40.4350 C.3   200  GLN200      0.0394
    137  CG        29.5010   16.2960   39.4800 C.3   200  GLN200      0.0908
    138  CD        28.5060   15.4070   40.1530 C.2   200  GLN200      0.2608
    139  OE1       28.5550   15.2240   41.3650 O.2   200  GLN200     -0.2717
    140  NE2       27.5550   14.9050   39.3960 N.am  200  GLN200     -0.0878
    141  N         30.9750   -0.5460   35.8750 N.3   265  ASN265     -0.1225
    142  CA        29.5020   -0.5340   35.9160 C.3   265  ASN265      0.1785
    143  C         28.8970   -0.1690   34.5730 C.2   265  ASN265      0.2597
    144  O         29.6260    0.1360   33.6350 O.2   265  ASN265     -0.2718
    145  CB        29.0190    0.4210   37.0130 C.3   265  ASN265      0.1169
    146  CG        27.5570    0.2620   37.3270 C.2   265  ASN265      0.2627
    147  OD1       27.0130   -0.8180   37.1850 O.2   265  ASN265     -0.2716
    148  ND2       26.9030    1.3380   37.7640 N.am  265  ASN265     -0.0877
    149  N         27.5680   -0.2540   34.4750 N.am  266  LYS266     -0.1980
    150  CA        26.8140    0.0970   33.2620 C.3   266  LYS266      0.1596
    151  C         27.1590   -0.8200   32.1010 C.2   266  LYS266      0.2287
    152  O         27.0780   -0.4150   30.9400 O.2   266  LYS266     -0.2864
    153  CB        27.0490    1.5660   32.8150 C.3   266  LYS266      0.0298
    154  CG        26.8440    2.6720   33.8550 C.3   266  LYS266      0.0038
    155  CD        25.5260    3.3670   33.7000 C.3   266  LYS266      0.0206
    156  CE        25.4270    4.5500   34.6440 C.3   266  LYS266      0.1093
    157  NZ        26.4790    5.5330   34.3290 N.3   266  LYS266     -0.1314
    158  N         25.5060   -3.1560   30.9080 N.3   268  ASP268     -0.1225
    159  CA        24.3460   -3.2700   30.0460 C.3   268  ASP268      0.1805
    160  C         24.3330   -2.1730   28.9790 C.2   268  ASP268      0.2597
    161  O         24.2070   -2.4490   27.7750 O.2   268  ASP268     -0.2718
    162  CB        23.0440   -3.2500   30.8480 C.3   268  ASP268      0.1424
    163  CG        22.9390   -2.0740   31.8350 C.2   268  ASP268      0.3668
    164  OD1       23.9790   -1.6220   32.3680 O.co2 268  ASP268     -0.2456
    165  OD2       21.7890   -1.6480   32.1210 O.co2 268  ASP268     -0.2456
    166  N         24.4870   -0.9270   29.4310 N.am  269  LEU269     -0.1979
    167  CA        24.4880    0.2270   28.5550 C.3   269  LEU269      0.1596
    168  C         25.7050    0.1030   27.6650 C.2   269  LEU269      0.2287
    169  O         25.6370    0.3070   26.4580 O.2   269  LEU269     -0.2864
    170  CB        24.5030    1.5390   29.3780 C.3   269  LEU269      0.0297
    171  CG        23.3050    1.7200   30.3430 C.3   269  LEU269      0.0022
    172  CD1       23.4330    2.9300   31.1910 C.3   269  LEU269      0.0001
    173  CD2       21.9760    1.7730   29.6440 C.3   269  LEU269      0.0001
    174  N         26.2300   -4.2710   36.6400 N.3   321  CYS321     -0.1221
    175  CA        25.1830   -3.4750   36.0680 C.3   321  CYS321      0.1808
    176  C         24.3570   -3.1640   37.3130 C.2   321  CYS321      0.2601
    177  O         23.4980   -3.9720   37.7490 O.2   321  CYS321     -0.2717
    178  CB        24.3650   -4.2420   35.0890 C.3   321  CYS321      0.0970
    179  SG        22.6810   -3.5940   34.9990 S.3   321  CYS321     -0.0800
    180  N         24.6570   -1.9920   37.8850 N.am  322  ALA322     -0.1965
    181  CA        24.2330   -1.6250   39.2280 C.3   322  ALA322      0.1728
    182  C         22.7430   -1.5880   39.4370 C.2   322  ALA322      0.2616
    183  O         22.2520   -1.7290   40.5540 O.2   322  ALA322     -0.2715
    184  CB        24.8680   -0.3370   39.6270 C.3   322  ALA322      0.0334
    185  N         22.0150   -1.4090   38.3520 N.am  323  THR323     -0.1951
    186  CA        20.5730   -1.3700   38.4530 C.3   323  THR323      0.1897
    187  C         20.0210   -2.7800   38.5760 C.2   323  THR323      0.2313
    188  O         18.8370   -2.9580   38.8890 O.2   323  THR323     -0.2863
    189  CB        19.9370   -0.6180   37.2770 C.3   323  THR323      0.1794
    190  OG1       20.6250   -0.9530   36.0740 O.3   323  THR323     -0.2208
    191  CG2       20.0490    0.8630   37.4830 C.3   323  THR323      0.0378
@<TRIPOS>BOND
     1   169   168    2
     2   168   167    1
     3   161   160    2
     4   167   170    1
     5   167   166    1
     6   160   166   am
     7   160   159    1
     8   170   171    1
     9   173   171    1
    10   159   162    1
    11   159   158    1
    12    66    65    2
    13   171   172    1
    14    58    57    2
    15    55    56    1
    16    69    68   ar
    17   162   163    1
    18   152   151    2
    19    57    56    1
    20    57    63   am
    21    65    64    1
    22    65    71   am
    23    73    74    2
    24    73    72    1
    25    64    63    1
    26    64    67    1
    27    56    59    1
    28   163   165   ar
    29   163   164   ar
    30    68    67    1
    31    68    70   ar
    32   151   150    1
    33    72    71    1
    34    72    75    1
    35    95    93    1
    36    59    60    1
    37   153   150    1
    38   153   154    1
    39    94    93    1
    40    93    92    2
    41   150   149    1
    42    75    76    1
    43    60    61    2
    44    60    62   am
    45   144   143    2
    46   155   154    1
    47   155   156    1
    48    12    11   ar
    49    92    91    1
    50   157   156    1
    51   149   143   am
    52   143   142    1
    53    13    11   ar
    54   179   178    1
    55    11    10    1
    56   178   175    1
    57    91    90    1
    58   141   142    1
    59   142   145    1
    60    90    89    1
    61   175   174    1
    62   175   176    1
    63   190   189    1
    64     9    10    1
    65     9     6    1
    66     8     7    2
    67    89    86    1
    68     4     3    2
    69    88    87    2
    70   145   146    1
    71   147   146    2
    72     7     6    1
    73     7    14   am
    74   189   191    1
    75   189   186    1
    76   176   177    2
    77   176   180   am
    78   146   148   am
    79   108   107    1
    80   108   109    1
    81     6     5    1
    82   107   104    1
    83    86    87    1
    84    86    85    1
    85    17    16    2
    86    87    96   am
    87    15    14    1
    88    15    16    1
    89    15    18    1
    90   180   181    1
    91     3     5   am
    92     3     2    1
    93   110   109    1
    94   110   111    2
    95    16    20   am
    96   185   186    1
    97   185   182   am
    98   186   187    1
    99   187   188    2
   100    18    19    1
   101     1     2    1
   102    85    79   am
   103   103   104    1
   104   103    98   am
   105    96    97    1
   106   104   105    1
   107   113   111    1
   108   111   112    1
   109    97    98    1
   110    97   100    1
   111    98    99    2
   112   181   182    1
   113   181   184    1
   114   140   138   am
   115    20    21    1
   116   182   183    2
   117   137   138    1
   118   137   136    1
   119    80    79    2
   120    79    78    1
   121    21    22    1
   122   105   106    2
   123   105   114   am
   124   138   139    2
   125   102   100    1
   126   136   133    1
   127   100   101    1
   128   133   134    1
   129   133   132    1
   130    44    43    1
   131    81    78    1
   132    81    82    1
   133    45    43    1
   134   114   115    1
   135    78    77    1
   136   131   130    2
   137   134   135    2
   138    43    40    1
   139   132   130   am
   140    22    23    2
   141    22    24   am
   142   130   129    1
   143    83    82    1
   144    82    84    1
   145   115   116    1
   146   115   118    1
   147    32    31    1
   148    24    25    1
   149   129   128    1
   150   116   117    2
   151    40    39    1
   152    40    41    1
   153   120   118    1
   154   118   119    1
   155    39    35   am
   156    29    30    1
   157    29    28    1
   158    31    30    1
   159    41    42    2
   160    25    28    1
   161    25    26    1
   162    54    53    1
   163   121   122    1
   164    33    26   am
   165    33    34    1
   166    26    27    2
   167    35    34    1
   168    35    36    2
   169    53    52    1
   170    37    34    1
   171    37    38    1
   172    52    51    1
   173   124   123    2
   174   126   125    1
   175   122   123    1
   176   122   125    1
   177    51    50    1
   178   125   127    1
   179    50    47    1
   180    46    47    1
   181    47    48    1
   182    48    49    2
