@<TRIPOS>MOLECULE
tmp/1agwA00.pdb
 136 127 0 0 0
SMALL
GASTEIGER

@<TRIPOS>ATOM
      1  N          5.9390    9.5000   25.8050 N.3    21  LEU21      -0.1245
      2  CA         7.0620    8.5980   25.5990 C.3    21  LEU21       0.1561
      3  C          8.1760    9.3070   24.8470 C.2    21  LEU21       0.2260
      4  O          9.3430    8.9140   24.9360 O.2    21  LEU21      -0.2867
      5  CB         6.6220    7.3600   24.8310 C.3    21  LEU21       0.0270
      6  CG         5.8230    6.3140   25.6080 C.3    21  LEU21       0.0019
      7  CD1        5.1550    5.3430   24.6360 C.3    21  LEU21       0.0001
      8  CD2        6.7270    5.5860   26.5850 C.3    21  LEU21       0.0001
      9  N          4.4990   11.4800   20.9640 N.3    24  VAL24      -0.1245
     10  CA         3.9760   10.1230   21.1270 C.3    24  VAL24       0.1561
     11  C          3.8020    9.9280   22.6200 C.2    24  VAL24       0.2260
     12  O          4.7490   10.1440   23.3900 O.2    24  VAL24      -0.2867
     13  CB         4.9370    9.0280   20.6240 C.3    24  VAL24       0.0252
     14  CG1        4.3170    7.6490   20.8510 C.3    24  VAL24       0.0019
     15  CG2        5.2390    9.2250   19.1590 C.3    24  VAL24       0.0019
     16  N          0.6090    3.0120   22.1720 N.3    40  ALA40      -0.1245
     17  CA         1.3320    4.2530   21.9620 C.3    40  ALA40       0.1562
     18  C          0.4570    5.0940   21.0420 C.2    40  ALA40       0.2260
     19  O         -0.0800    4.5970   20.0580 O.2    40  ALA40      -0.2867
     20  CB         2.6910    3.9750   21.3180 C.3    40  ALA40       0.0290
     21  N          0.2390    8.5100   18.6440 N.3    42  LYS42      -0.1245
     22  CA         0.9660    9.5540   17.9200 C.3    42  LYS42       0.1561
     23  C         -0.0060   10.6900   17.6390 C.2    42  LYS42       0.2260
     24  O         -1.1200   10.4550   17.1460 O.2    42  LYS42      -0.2867
     25  CB         1.5320    9.0260   16.5990 C.3    42  LYS42       0.0271
     26  CG         2.5810    7.9430   16.7630 C.3    42  LYS42       0.0035
     27  CD         3.0230    7.3650   15.4260 C.3    42  LYS42       0.0206
     28  CE         3.6660    8.4170   14.5350 C.3    42  LYS42       0.1093
     29  NZ         4.9450    8.9430   15.0750 N.3    42  LYS42      -0.1314
     30  N          1.2760    8.6120    7.1000 N.3    59  GLU59      -0.1245
     31  CA         1.9000    7.5030    7.8080 C.3    59  GLU59       0.1567
     32  C          0.8690    6.4510    8.2120 C.2    59  GLU59       0.2260
     33  O          1.1540    5.2450    8.1850 O.2    59  GLU59      -0.2867
     34  CB         2.6540    8.0050    9.0400 C.3    59  GLU59       0.0388
     35  CG         3.3590    6.9000    9.8320 C.3    59  GLU59       0.1160
     36  CD         4.1570    7.4190   11.0110 C.2    59  GLU59       0.3649
     37  OE1        4.0120    8.6130   11.3600 O.co2  59  GLU59      -0.2457
     38  OE2        4.9350    6.6270   11.5910 O.co2  59  GLU59      -0.2457
     39  N          6.0740   -2.2630   13.8800 N.3    73  ILE73      -0.1245
     40  CA         5.1230   -1.6200   14.7780 C.3    73  ILE73       0.1561
     41  C          3.8170   -1.6090   13.9940 C.2    73  ILE73       0.2260
     42  O          3.7490   -1.0490   12.8930 O.2    73  ILE73      -0.2867
     43  CB         5.5410   -0.1700   15.1200 C.3    73  ILE73       0.0252
     44  CG1        6.7660   -0.1680   16.0430 C.3    73  ILE73       0.0019
     45  CG2        4.3870    0.5840   15.7590 C.3    73  ILE73       0.0019
     46  CD1        6.4920   -0.5990   17.4840 C.3    73  ILE73       0.0001
     47  N         -0.7640    3.0470   17.8450 N.3    89  VAL89      -0.1231
     48  CA         0.1820    2.0290   17.3900 C.3    89  VAL89       0.1692
     49  C          0.6650    1.1140   18.5340 C.2    89  VAL89       0.2592
     50  O          0.3680    1.3680   19.7100 O.2    89  VAL89      -0.2718
     51  CB         1.3930    2.7120   16.6420 C.3    89  VAL89       0.0266
     52  CG1        0.9060    3.3860   15.3840 C.3    89  VAL89       0.0020
     53  CG2        2.0620    3.7650   17.5210 C.3    89  VAL89       0.0020
     54  N          1.3600    0.0300   18.1900 N.am   90  GLU90      -0.1966
     55  CA         1.8510   -0.8920   19.2040 C.3    90  GLU90       0.1733
     56  C          2.8620   -0.2440   20.1290 C.2    90  GLU90       0.2616
     57  O          3.6600    0.5840   19.7100 O.2    90  GLU90      -0.2715
     58  CB         2.4430   -2.1470   18.5730 C.3    90  GLU90       0.0429
     59  CG         1.3910   -3.0820   18.0360 C.3    90  GLU90       0.1163
     60  CD         1.9660   -4.3460   17.4380 C.2    90  GLU90       0.3649
     61  OE1        3.0400   -4.2730   16.8050 O.co2  90  GLU90      -0.2457
     62  OE2        1.3270   -5.4150   17.5820 O.co2  90  GLU90      -0.2457
     63  N          2.8130   -0.6380   21.3940 N.am   91  TYR91      -0.1960
     64  CA         3.6940   -0.1200   22.4240 C.3    91  TYR91       0.1771
     65  C          4.8920   -1.0400   22.6440 C.2    91  TYR91       0.2619
     66  O          4.7570   -2.2730   22.7020 O.2    91  TYR91      -0.2715
     67  CB         2.8980    0.0480   23.7170 C.3    91  TYR91       0.0574
     68  CG         3.7160    0.4590   24.9090 C.ar   91  TYR91      -0.0198
     69  CD1        4.5160    1.6020   24.8700 C.ar   91  TYR91      -0.0009
     70  CD2        3.6890   -0.2910   26.0810 C.ar   91  TYR91      -0.0009
     71  CE1        5.2670    1.9890   25.9690 C.ar   91  TYR91       0.0417
     72  CE2        4.4360    0.0820   27.1810 C.ar   91  TYR91       0.0417
     73  CZ         5.2230    1.2210   27.1180 C.ar   91  TYR91       0.1957
     74  OH         5.9730    1.5900   28.2020 O.3    91  TYR91      -0.2866
     75  N          6.0590   -0.4180   22.7800 N.am   92  ALA92      -0.1963
     76  CA         7.3180   -1.1180   22.9910 C.3    92  ALA92       0.1728
     77  C          7.8670   -0.6140   24.3310 C.2    92  ALA92       0.2617
     78  O          8.4930    0.4430   24.4080 O.2    92  ALA92      -0.2715
     79  CB         8.2770   -0.7970   21.8350 C.3    92  ALA92       0.0334
     80  N          7.6240   -1.3790   25.3870 N.am   93  SER93      -0.1936
     81  CA         8.0250   -0.9870   26.7310 C.3    93  SER93       0.2055
     82  C          9.5090   -0.9430   27.0430 C.2    93  SER93       0.2643
     83  O          9.8840   -0.4980   28.1240 O.2    93  SER93      -0.2714
     84  CB         7.3250   -1.8670   27.7650 C.3    93  SER93       0.2130
     85  OG         7.8020   -3.1960   27.6830 O.3    93  SER93      -0.2179
     86  N         10.3580   -1.4240   26.1460 N.am   94  LYS94      -0.1963
     87  CA        11.7790   -1.3950   26.4320 C.3    94  LYS94       0.1728
     88  C         12.5740   -0.4230   25.5860 C.2    94  LYS94       0.2617
     89  O         13.8070   -0.4500   25.5890 O.2    94  LYS94      -0.2715
     90  CB        12.3530   -2.8000   26.3850 C.3    94  LYS94       0.0311
     91  CG        11.7090   -3.6830   27.4480 C.3    94  LYS94       0.0038
     92  CD        12.3240   -5.0530   27.5060 C.3    94  LYS94       0.0206
     93  CE        11.7280   -5.8540   28.6410 C.3    94  LYS94       0.1093
     94  NZ        12.3150   -7.2190   28.6620 N.3    94  LYS94      -0.1314
     95  N         11.8640    0.4780   24.9090 N.am   95  GLY95      -0.1940
     96  CA        12.5190    1.4760   24.0840 C.3    95  GLY95       0.2014
     97  C         13.1980    0.9370   22.8400 C.2    95  GLY95       0.2638
     98  O         12.9470   -0.2020   22.4310 O.2    95  GLY95      -0.2714
     99  N         14.0750    1.7530   22.2520 N.am   96  ASN96      -0.1972
    100  CA        14.7810    1.3730   21.0390 C.3    96  ASN96       0.1688
    101  C         15.9030    0.3720   21.2520 C.2    96  ASN96       0.2292
    102  O         16.4570    0.2760   22.3380 O.2    96  ASN96      -0.2864
    103  CB        15.2840    2.6050   20.3020 C.3    96  ASN96       0.1181
    104  CG        16.4090    3.3090   21.0230 C.2    96  ASN96       0.2629
    105  OD1       17.4330    2.7160   21.3530 O.2    96  ASN96      -0.2716
    106  ND2       16.2540    4.6090   21.2050 N.am   96  ASN96      -0.0877
    107  N         19.5840    1.6180   22.8580 N.3    99  GLU99      -0.1245
    108  CA        19.5210    1.7630   24.3040 C.3    99  GLU99       0.1567
    109  C         19.4270    0.4030   24.9910 C.2    99  GLU99       0.2260
    110  O         20.1230    0.1350   25.9680 O.2    99  GLU99      -0.2867
    111  CB        18.3130    2.6120   24.6620 C.3    99  GLU99       0.0388
    112  CG        18.3880    4.0350   24.1280 C.3    99  GLU99       0.1160
    113  CD        17.0550    4.7880   24.2060 C.2    99  GLU99       0.3649
    114  OE1       15.9880    4.1390   24.3850 O.co2  99  GLU99      -0.2457
    115  OE2       17.0770    6.0380   24.0640 O.co2  99  GLU99      -0.2457
    116  N         12.1930   -0.9270   17.8560 N.3   146  LEU146     -0.1245
    117  CA        11.7620   -0.9140   19.2410 C.3   146  LEU146      0.1561
    118  C         11.6390   -2.3190   19.8370 C.2   146  LEU146      0.2260
    119  O         11.4190   -3.3050   19.1160 O.2   146  LEU146     -0.2867
    120  CB        10.4600   -0.1160   19.3590 C.3   146  LEU146      0.0270
    121  CG        10.5120    1.3120   18.7850 C.3   146  LEU146      0.0019
    122  CD1        9.1220    1.8770   18.6130 C.3   146  LEU146      0.0001
    123  CD2       11.3170    2.1970   19.6870 C.3   146  LEU146      0.0001
    124  N         10.1970    0.3870   13.3650 N.3   156  ALA156     -0.1231
    125  CA         9.3720    1.5870   13.4460 C.3   156  ALA156      0.1694
    126  C          9.7230    2.6310   12.3950 C.2   156  ALA156      0.2592
    127  O         10.7820    2.5840   11.7650 O.2   156  ALA156     -0.2718
    128  CB         9.5050    2.2010   14.8310 C.3   156  ALA156      0.0304
    129  N          8.8080    3.5760   12.2130 N.am  157  ASP157     -0.1974
    130  CA         8.9630    4.6820   11.2690 C.3   157  ASP157      0.1709
    131  C          9.0820    4.3020    9.8020 C.2   157  ASP157      0.2293
    132  O          9.5540    5.0960    8.9860 O.2   157  ASP157     -0.2864
    133  CB        10.1400    5.5720   11.6710 C.3   157  ASP157      0.1436
    134  CG         9.7870    6.5690   12.7810 C.2   157  ASP157      0.3671
    135  OD1        8.7380    6.4310   13.4580 O.co2 157  ASP157     -0.2456
    136  OD2       10.5890    7.5090   12.9660 O.co2 157  ASP157     -0.2456
@<TRIPOS>BOND
     1    30    31    1
     2    31    32    1
     3    31    34    1
     4    33    32    2
     5   132   131    2
     6    34    35    1
     7   131   130    1
     8    35    36    1
     9    36    37   ar
    10    36    38   ar
    11   130   133    1
    12   130   129    1
    13   133   134    1
    14   127   126    2
    15   129   126   am
    16   126   125    1
    17   134   136   ar
    18   134   135   ar
    19    42    41    2
    20   124   125    1
    21   125   128    1
    22    39    40    1
    23    41    40    1
    24    28    29    1
    25    28    27    1
    26    40    43    1
    27    43    45    1
    28    43    44    1
    29    52    51    1
    30    27    26    1
    31    44    46    1
    32    25    26    1
    33    25    22    1
    34    51    48    1
    35    51    53    1
    36    61    60   ar
    37    24    23    2
    38    48    47    1
    39    48    49    1
    40    60    62   ar
    41    60    59    1
    42    23    22    1
    43   116   117    1
    44    22    21    1
    45    59    58    1
    46    54    49   am
    47    54    55    1
    48    49    50    2
    49    58    55    1
    50   122   121    1
    51   121   120    1
    52   121   123    1
    53   119   118    2
    54    15    13    1
    55    55    56    1
    56   117   120    1
    57   117   118    1
    58    57    56    2
    59    19    18    2
    60    56    63   am
    61   103   104    1
    62   103   100    1
    63    13    14    1
    64    13    10    1
    65     9    10    1
    66   104   106   am
    67   104   105    2
    68   100   101    1
    69   100    99    1
    70    18    17    1
    71    10    11    1
    72   101   102    2
    73    20    17    1
    74    63    64    1
    75    79    76    1
    76    17    16    1
    77    99    97   am
    78    64    65    1
    79    64    67    1
    80    98    97    2
    81    11    12    2
    82    65    66    2
    83    65    75   am
    84    75    76    1
    85    97    96    1
    86   107   108    1
    87    76    77    1
    88    67    68    1
    89   115   113   ar
    90    96    95    1
    91   112   113    1
    92   112   111    1
    93   113   114   ar
    94   108   111    1
    95   108   109    1
    96    77    78    2
    97    77    80   am
    98     7     6    1
    99     5     2    1
   100     5     6    1
   101     3     4    2
   102     3     2    1
   103    69    68   ar
   104    69    71   ar
   105    95    88   am
   106    68    70   ar
   107   109   110    2
   108    80    81    1
   109    88    89    2
   110    88    87    1
   111     2     1    1
   112     6     8    1
   113    71    73   ar
   114    70    72   ar
   115    86    87    1
   116    86    82   am
   117    90    87    1
   118    90    91    1
   119    81    82    1
   120    81    84    1
   121    82    83    2
   122    73    72   ar
   123    73    74    1
   124    91    92    1
   125    92    93    1
   126    85    84    1
   127    93    94    1
