@<TRIPOS>MOLECULE
tmp/1agwB00.pdb
 132 123 0 0 0
SMALL
GASTEIGER

@<TRIPOS>ATOM
      1  N         71.5260    3.8490   -1.9130 N.3    22  LYS22      -0.1245
      2  CA        70.1060    4.1240   -2.0810 C.3    22  LYS22       0.1561
      3  C         69.4950    4.9010   -0.9360 C.2    22  LYS22       0.2260
      4  O         69.6180    4.5090    0.2200 O.2    22  LYS22      -0.2867
      5  CB        69.3340    2.8140   -2.2690 C.3    22  LYS22       0.0271
      6  CG        67.9920    2.9690   -2.9000 C.3    22  LYS22       0.0035
      7  CD        67.2990    1.6190   -2.9270 C.3    22  LYS22       0.0206
      8  CE        65.7810    1.7670   -2.8370 C.3    22  LYS22       0.1093
      9  NZ        65.3180    2.4780   -1.5830 N.3    22  LYS22      -0.1314
     10  N         67.0650    5.9450    1.7500 N.3    24  LEU24      -0.1231
     11  CA        66.0280    5.2310    2.4730 C.3    24  LEU24       0.1693
     12  C         64.8320    6.1280    2.7480 C.2    24  LEU24       0.2592
     13  O         63.6880    5.7000    2.6040 O.2    24  LEU24      -0.2718
     14  CB        66.5770    4.6820    3.7880 C.3    24  LEU24       0.0284
     15  CG        67.5640    3.5250    3.6470 C.3    24  LEU24       0.0019
     16  CD1       68.1830    3.1970    4.9790 C.3    24  LEU24       0.0001
     17  CD2       66.8530    2.3160    3.0820 C.3    24  LEU24       0.0001
     18  N         65.1030    7.3790    3.1160 N.am   25  GLY25      -0.1957
     19  CA        64.0360    8.3170    3.4140 C.3    25  GLY25       0.1869
     20  C         64.5140    9.7560    3.4730 C.2    25  GLY25       0.2309
     21  O         65.7100   10.0260    3.3560 O.2    25  GLY25      -0.2863
     22  N         68.0650   10.3660    4.8180 N.3    32  VAL32      -0.1245
     23  CA        68.5940    9.1130    5.3400 C.3    32  VAL32       0.1561
     24  C         68.8990    8.2210    4.1500 C.2    32  VAL32       0.2260
     25  O         68.0110    7.9330    3.3520 O.2    32  VAL32      -0.2867
     26  CB        67.5590    8.3740    6.2380 C.3    32  VAL32       0.0252
     27  CG1       68.1170    7.0210    6.7140 C.3    32  VAL32       0.0019
     28  CG2       67.1790    9.2320    7.4260 C.3    32  VAL32       0.0019
     29  N         72.5790    2.6900    7.8940 N.3    48  ALA48      -0.1245
     30  CA        71.7560    3.8390    7.5120 C.3    48  ALA48       0.1562
     31  C         72.5190    5.0890    7.9330 C.2    48  ALA48       0.2260
     32  O         73.0270    5.1600    9.0530 O.2    48  ALA48      -0.2867
     33  CB        70.4140    3.7970    8.2180 C.3    48  ALA48       0.0290
     34  N         72.2190    9.1960    8.4200 N.3    50  LYS50      -0.1245
     35  CA        71.4060   10.4050    8.4920 C.3    50  LYS50       0.1561
     36  C         72.3520   11.5670    8.2030 C.2    50  LYS50       0.2260
     37  O         73.5180   11.5410    8.6100 O.2    50  LYS50      -0.2867
     38  CB        70.7600   10.5610    9.8740 C.3    50  LYS50       0.0271
     39  CG        70.0270    9.3290   10.3390 C.3    50  LYS50       0.0035
     40  CD        69.3000    9.5600   11.6560 C.3    50  LYS50       0.0206
     41  CE        68.0770   10.4590   11.4820 C.3    50  LYS50       0.1093
     42  NZ        67.1670   10.4610   12.6790 N.3    50  LYS50      -0.1314
     43  N         67.4440    1.8430   17.7990 N.3    81  ILE81      -0.1245
     44  CA        68.3780    2.0740   16.6990 C.3    81  ILE81       0.1561
     45  C         69.6360    2.6390   17.3670 C.2    81  ILE81       0.2260
     46  O         69.5860    3.6810   18.0200 O.2    81  ILE81      -0.2867
     47  CB        67.8300    3.0770   15.6660 C.3    81  ILE81       0.0252
     48  CG1       66.6330    2.4860   14.9180 C.3    81  ILE81       0.0019
     49  CG2       68.9170    3.4480   14.6710 C.3    81  ILE81       0.0019
     50  CD1       66.9870    1.3420   13.9710 C.3    81  ILE81       0.0001
     51  N         73.9070    4.9570   11.6780 N.3    97  VAL97      -0.1231
     52  CA        73.1250    4.1250   12.5770 C.3    97  VAL97       0.1692
     53  C         72.7510    2.7660   11.9430 C.2    97  VAL97       0.2592
     54  O         73.0480    2.5100   10.7730 O.2    97  VAL97      -0.2718
     55  CB        71.8510    4.8730   13.0830 C.3    97  VAL97       0.0266
     56  CG1       72.2440    6.0340   13.9710 C.3    97  VAL97       0.0020
     57  CG2       71.0090    5.3560   11.9140 C.3    97  VAL97       0.0020
     58  N         72.1260    1.8990   12.7390 N.am   98  GLU98      -0.1966
     59  CA        71.7010    0.5730   12.3030 C.3    98  GLU98       0.1733
     60  C         70.6480    0.6010   11.2090 C.2    98  GLU98       0.2616
     61  O         69.7630    1.4470   11.2230 O.2    98  GLU98      -0.2715
     62  CB        71.1740   -0.2140   13.4990 C.3    98  GLU98       0.0429
     63  CG        72.2410   -0.5070   14.5270 C.3    98  GLU98       0.1163
     64  CD        71.6920   -1.1240   15.7920 C.2    98  GLU98       0.3649
     65  OE1       70.6170   -0.7060   16.2600 O.co2  98  GLU98      -0.2457
     66  OE2       72.3500   -2.0230   16.3420 O.co2  98  GLU98      -0.2457
     67  N         70.7270   -0.3570   10.2930 N.am   99  TYR99      -0.1960
     68  CA        69.7970   -0.4750    9.1690 C.3    99  TYR99       0.1771
     69  C         68.6750   -1.4800    9.4550 C.2    99  TYR99       0.2619
     70  O         68.9310   -2.5880    9.9310 O.2    99  TYR99      -0.2715
     71  CB        70.5760   -0.9020    7.9230 C.3    99  TYR99       0.0574
     72  CG        69.7350   -1.2060    6.7090 C.ar   99  TYR99      -0.0198
     73  CD1       68.8260   -0.2750    6.2160 C.ar   99  TYR99      -0.0009
     74  CD2       69.8580   -2.4230    6.0400 C.ar   99  TYR99      -0.0009
     75  CE1       68.0580   -0.5430    5.0880 C.ar   99  TYR99       0.0417
     76  CE2       69.0940   -2.7070    4.9030 C.ar   99  TYR99       0.0417
     77  CZ        68.1950   -1.7610    4.4360 C.ar   99  TYR99       0.1957
     78  OH        67.4230   -2.0240    3.3300 O.3    99  TYR99      -0.2866
     79  N         67.4380   -1.1080    9.1360 N.am  100  ALA100     -0.1963
     80  CA        66.2880   -1.9810    9.3600 C.3   100  ALA100      0.1728
     81  C         65.6910   -2.3870    8.0180 C.2   100  ALA100      0.2617
     82  O         64.7860   -1.7340    7.5010 O.2   100  ALA100     -0.2715
     83  CB        65.2590   -1.2710   10.2060 C.3   100  ALA100      0.0334
     84  N         66.1650   -3.5060    7.4850 N.am  101  SER101     -0.1936
     85  CA        65.7240   -3.9970    6.1810 C.3   101  SER101      0.2055
     86  C         64.2380   -4.1530    5.9410 C.2   101  SER101      0.2643
     87  O         63.8150   -4.1700    4.7940 O.2   101  SER101     -0.2714
     88  CB        66.4260   -5.3090    5.8380 C.3   101  SER101      0.2130
     89  OG        66.2000   -6.2860    6.8340 O.3   101  SER101     -0.2179
     90  N         63.4330   -4.2630    6.9890 N.am  102  LYS102     -0.1963
     91  CA        62.0000   -4.4370    6.7780 C.3   102  LYS102      0.1728
     92  C         61.1250   -3.2150    7.0460 C.2   102  LYS102      0.2616
     93  O         59.9090   -3.3340    7.2260 O.2   102  LYS102     -0.2715
     94  CB        61.5090   -5.6760    7.5260 C.3   102  LYS102      0.0311
     95  CG        62.0480   -6.9660    6.9050 C.3   102  LYS102      0.0038
     96  CD        61.9510   -8.1640    7.8230 C.3   102  LYS102      0.0206
     97  CE        62.6840   -9.3360    7.2000 C.3   102  LYS102      0.1093
     98  NZ        62.7750  -10.5050    8.1130 N.3   102  LYS102     -0.1314
     99  N         61.7470   -2.0380    7.0210 N.am  103  GLY103     -0.1955
    100  CA        61.0220   -0.7980    7.2380 C.3   103  GLY103      0.1869
    101  C         60.3810   -0.6540    8.6040 C.2   103  GLY103      0.2309
    102  O         60.8100   -1.2930    9.5710 O.2   103  GLY103     -0.2863
    103  N         54.0550   -0.8210    8.2990 N.3   107  GLU107     -0.1245
    104  CA        54.1960   -1.4730    7.0110 C.3   107  GLU107      0.1567
    105  C         54.4730   -2.9730    7.1580 C.2   107  GLU107      0.2260
    106  O         53.8680   -3.7930    6.4550 O.2   107  GLU107     -0.2867
    107  CB        55.2880   -0.7560    6.2240 C.3   107  GLU107      0.0388
    108  CG        54.9680    0.7340    6.0460 C.3   107  GLU107      0.1160
    109  CD        56.1350    1.5610    5.5190 C.2   107  GLU107      0.3649
    110  OE1       57.2970    1.0820    5.5690 O.co2 107  GLU107     -0.2457
    111  OE2       55.8850    2.7040    5.0620 O.co2 107  GLU107     -0.2457
    112  N         61.3480    0.3730   13.8490 N.3   150  LEU150     -0.1245
    113  CA        61.8670   -0.2600   12.6470 C.3   150  LEU150      0.1561
    114  C         62.1190   -1.7380   12.9180 C.2   150  LEU150      0.2260
    115  O         62.3410   -2.1250   14.0650 O.2   150  LEU150     -0.2867
    116  CB        63.1360    0.4560   12.1810 C.3   150  LEU150      0.0270
    117  CG        62.9960    1.9740   11.9850 C.3   150  LEU150      0.0019
    118  CD1       64.3420    2.5890   11.7260 C.3   150  LEU150      0.0001
    119  CD2       62.0360    2.2840   10.8500 C.3   150  LEU150      0.0001
    120  N         63.1040    3.9950   16.9300 N.3   160  ALA160     -0.1231
    121  CA        63.8560    4.9660   16.1480 C.3   160  ALA160      0.1694
    122  C         63.4010    6.3810   16.5110 C.2   160  ALA160      0.2592
    123  O         62.3220    6.5580   17.0880 O.2   160  ALA160     -0.2718
    124  CB        63.6450    4.7100   14.6780 C.3   160  ALA160      0.0304
    125  N         64.2410    7.3720   16.2090 N.am  161  ASP161     -0.1974
    126  CA        63.9520    8.7920   16.4640 C.3   161  ASP161      0.1709
    127  C         63.7330    9.2440   17.9110 C.2   161  ASP161      0.2293
    128  O         63.1230   10.2820   18.1650 O.2   161  ASP161     -0.2864
    129  CB        62.7720    9.2580   15.6040 C.3   161  ASP161      0.1436
    130  CG        63.1530    9.4760   14.1510 C.2   161  ASP161      0.3671
    131  OD1       64.3150    9.1780   13.7610 O.co2 161  ASP161     -0.2456
    132  OD2       62.2740    9.9600   13.4060 O.co2 161  ASP161     -0.2456
@<TRIPOS>BOND
     1     7     6    1
     2     7     8    1
     3     6     5    1
     4     8     9    1
     5     5     2    1
     6     2     1    1
     7     2     3    1
     8     3     4    2
     9    10    11    1
    10    11    12    1
    11    11    14    1
    12    13    12    2
    13    12    18   am
    14    17    15    1
    15    18    19    1
    16    78    77    1
    17    25    24    2
    18    21    20    2
    19    19    20    1
    20    15    14    1
    21    15    16    1
    22    24    23    1
    23    77    76   ar
    24    77    75   ar
    25    87    86    2
    26    22    23    1
    27    76    74   ar
    28   111   109   ar
    29    75    73   ar
    30    23    26    1
    31   109   110   ar
    32   109   108    1
    33    88    85    1
    34    88    89    1
    35    86    85    1
    36    86    90   am
    37    74    72   ar
    38   108   107    1
    39    85    84    1
    40    73    72   ar
    41   107   104    1
    42    26    27    1
    43    26    28    1
    44   106   105    2
    45    72    71    1
    46    91    90    1
    47    91    92    1
    48    91    94    1
    49    95    94    1
    50    95    96    1
    51   104   105    1
    52   104   103    1
    53    99    92   am
    54    99   100    1
    55    92    93    2
    56    97    96    1
    57    97    98    1
    58   100   101    1
    59    84    81   am
    60    82    81    2
    61    30    29    1
    62    30    31    1
    63    30    33    1
    64    71    68    1
    65    31    32    2
    66    81    80    1
    67    36    35    1
    68    36    37    2
    69    34    35    1
    70    35    38    1
    71   101   102    2
    72    79    80    1
    73    79    69   am
    74    68    69    1
    75    68    67    1
    76    80    83    1
    77    69    70    2
    78    38    39    1
    79    67    60   am
    80    39    40    1
    81    54    53    2
    82   119   117    1
    83    60    61    2
    84    60    59    1
    85    41    40    1
    86    41    42    1
    87    51    52    1
    88   118   117    1
    89    57    55    1
    90    53    52    1
    91    53    58   am
    92   117   116    1
    93   116   113    1
    94    59    58    1
    95    59    62    1
    96    52    55    1
    97   113   114    1
    98   113   112    1
    99   114   115    2
   100    55    56    1
   101   132   130   ar
   102    62    63    1
   103   131   130   ar
   104    50    48    1
   105   130   129    1
   106    63    64    1
   107    49    47    1
   108   124   121    1
   109    48    47    1
   110   129   126    1
   111    47    44    1
   112    64    65   ar
   113    64    66   ar
   114   121   122    1
   115   121   120    1
   116   125   126    1
   117   125   122   am
   118   126   127    1
   119   122   123    2
   120    44    45    1
   121    44    43    1
   122    45    46    2
   123   127   128    2
