@<TRIPOS>MOLECULE
tmp/1ah0A01.pdb
 131 134 0 0 0
SMALL
GASTEIGER

@<TRIPOS>ATOM
      1  N         57.5400   32.1450   87.7960 N.3    20  TRP20      -0.1241
      2  CA        58.9270   32.2430   87.3440 C.3    20  TRP20       0.1605
      3  C         59.4100   30.8360   87.0560 C.2    20  TRP20       0.2264
      4  O         59.0960   29.8720   87.7630 O.2    20  TRP20      -0.2867
      5  CB        59.8450   32.8570   88.3940 C.3    20  TRP20       0.0550
      6  CG        61.3210   33.0020   87.9770 C.ar   20  TRP20       0.0003
      7  CD1       61.7120   33.3770   86.7150 C.ar   20  TRP20       0.0946
      8  CD2       62.4010   32.7630   88.7930 C.ar   20  TRP20       0.0152
      9  NE1       63.0240   33.3660   86.7310 N.ar   20  TRP20      -0.2442
     10  CE2       63.4790   33.0080   87.9370 C.ar   20  TRP20       0.0810
     11  CE3       62.6250   32.3880   90.1210 C.ar   20  TRP20       0.0012
     12  CZ2       64.7910   32.8780   88.3880 C.ar   20  TRP20       0.0191
     13  CZ3       63.9410   32.2590   90.5760 C.ar   20  TRP20       0.0001
     14  CH2       65.0120   32.5020   89.7150 C.ar   20  TRP20       0.0015
     15  N         59.3580   40.0690   83.1560 N.3    47  VAL47      -0.1231
     16  CA        60.6240   39.3910   82.9340 C.3    47  VAL47       0.1692
     17  C         60.5500   37.8750   82.8620 C.2    47  VAL47       0.2592
     18  O         61.4840   37.2220   82.3900 O.2    47  VAL47      -0.2718
     19  CB        61.5980   39.8830   84.0340 C.3    47  VAL47       0.0266
     20  CG1       61.4240   39.1290   85.3490 C.3    47  VAL47       0.0020
     21  CG2       63.0070   39.7450   83.4880 C.3    47  VAL47       0.0020
     22  N         59.4260   37.2770   83.2390 N.am   48  TYR48      -0.1962
     23  CA        59.3200   35.8390   83.1970 C.3    48  TYR48       0.1771
     24  C         59.0390   35.3770   81.7800 C.2    48  TYR48       0.2619
     25  O         59.0760   34.1660   81.5240 O.2    48  TYR48      -0.2715
     26  CB        58.2060   35.3400   84.1360 C.3    48  TYR48       0.0574
     27  CG        58.3930   35.6580   85.6150 C.ar   48  TYR48      -0.0198
     28  CD1       59.5770   36.2280   86.0900 C.ar   48  TYR48      -0.0009
     29  CD2       57.3310   35.4400   86.5000 C.ar   48  TYR48      -0.0009
     30  CE1       59.6870   36.5890   87.4290 C.ar   48  TYR48       0.0417
     31  CE2       57.4420   35.7930   87.8500 C.ar   48  TYR48       0.0417
     32  CZ        58.6250   36.3770   88.3030 C.ar   48  TYR48       0.1957
     33  OH        58.7490   36.8240   89.6050 O.3    48  TYR48      -0.2866
     34  N         58.7380   36.3020   80.8440 N.am   49  GLN49      -0.1977
     35  CA        58.5860   35.9730   79.4210 C.3    49  GLN49       0.1601
     36  C         57.4640   34.9900   79.1080 C.2    49  GLN49       0.2287
     37  O         57.4650   34.2630   78.1070 O.2    49  GLN49      -0.2864
     38  CB        59.8880   35.3900   78.8550 C.3    49  GLN49       0.0394
     39  CG        61.1130   36.2960   78.7220 C.3    49  GLN49       0.0908
     40  CD        62.3310   35.5190   78.2180 C.2    49  GLN49       0.2608
     41  OE1       62.3330   34.9450   77.1230 O.2    49  GLN49      -0.2717
     42  NE2       63.4130   35.4330   78.9770 N.am   49  GLN49      -0.0878
     43  N         59.7890   45.6440   85.3750 N.3    79  TRP79      -0.1241
     44  CA        61.1690   45.2140   85.3740 C.3    79  TRP79       0.1605
     45  C         62.1670   46.3800   85.4310 C.2    79  TRP79       0.2264
     46  O         61.8450   47.5310   85.1350 O.2    79  TRP79      -0.2867
     47  CB        61.4300   44.3280   84.1400 C.3    79  TRP79       0.0550
     48  CG        62.8050   43.6650   84.2390 C.ar   79  TRP79       0.0003
     49  CD1       63.7550   43.8860   83.2700 C.ar   79  TRP79       0.0946
     50  CD2       63.2550   42.8610   85.2720 C.ar   79  TRP79       0.0152
     51  NE1       64.8030   43.2320   83.6850 N.ar   79  TRP79      -0.2442
     52  CE2       64.5680   42.6070   84.8520 C.ar   79  TRP79       0.0810
     53  CE3       62.7950   42.3040   86.4770 C.ar   79  TRP79       0.0012
     54  CZ2       65.4270   41.8060   85.6120 C.ar   79  TRP79       0.0191
     55  CZ3       63.6540   41.5010   87.2390 C.ar   79  TRP79       0.0001
     56  CH2       64.9650   41.2490   86.8110 C.ar   79  TRP79       0.0015
     57  N         59.8420   45.6070   90.7250 N.3   110  HIS110     -0.1226
     58  CA        60.4070   44.2790   90.9370 C.3   110  HIS110      0.1752
     59  C         61.6690   44.2180   91.7830 C.2   110  HIS110      0.2596
     60  O         61.8560   43.2880   92.5790 O.2   110  HIS110     -0.2718
     61  CB        60.6720   43.6500   89.5890 C.3   110  HIS110      0.0759
     62  CG        60.7360   42.1260   89.5370 C.ar  110  HIS110      0.0818
     63  ND1       60.4340   41.3550   88.5000 N.ar  110  HIS110     -0.2268
     64  CD2       61.1280   41.3030   90.5580 C.ar  110  HIS110      0.1154
     65  CE1       60.6320   40.1150   88.8610 C.ar  110  HIS110      0.1986
     66  NE2       61.0510   40.0930   90.1030 N.ar  110  HIS110     -0.2212
     67  N         62.5630   45.1620   91.5500 N.am  111  TRP111     -0.1976
     68  CA        63.8240   45.2320   92.2340 C.3   111  TRP111      0.1640
     69  C         64.0200   46.7120   92.3960 C.2   111  TRP111      0.2290
     70  O         63.5060   47.5070   91.5920 O.2   111  TRP111     -0.2864
     71  CB        64.9510   44.6330   91.3860 C.3   111  TRP111      0.0576
     72  CG        65.0170   43.1080   91.4850 C.ar  111  TRP111      0.0006
     73  CD1       64.3180   42.3040   90.6320 C.ar  111  TRP111      0.0946
     74  CD2       65.7320   42.3800   92.4090 C.ar  111  TRP111      0.0152
     75  NE1       64.5750   41.0730   91.0000 N.ar  111  TRP111     -0.2442
     76  CE2       65.4030   41.0670   92.0440 C.ar  111  TRP111      0.0810
     77  CE3       66.5950   42.6150   93.4810 C.ar  111  TRP111      0.0012
     78  CZ2       65.9170   39.9740   92.7300 C.ar  111  TRP111      0.0191
     79  CZ3       67.1120   41.5170   94.1640 C.ar  111  TRP111      0.0001
     80  CH2       66.7820   40.2170   93.7990 C.ar  111  TRP111      0.0015
     81  N         68.9460   42.3970   81.3280 N.3   122  PHE122     -0.1241
     82  CA        70.1370   42.5550   82.1450 C.3   122  PHE122      0.1605
     83  C         71.2510   43.0700   81.2210 C.2   122  PHE122      0.2264
     84  O         72.0450   42.2790   80.7000 O.2   122  PHE122     -0.2867
     85  CB        70.5610   41.2140   82.7470 C.3   122  PHE122      0.0534
     86  CG        69.5710   40.5760   83.6990 C.ar  122  PHE122     -0.0203
     87  CD1       68.5600   39.7480   83.2050 C.ar  122  PHE122     -0.0042
     88  CD2       69.6850   40.8050   85.0710 C.ar  122  PHE122     -0.0042
     89  CE1       67.6630   39.1450   84.0880 C.ar  122  PHE122     -0.0003
     90  CE2       68.7820   40.1950   85.9470 C.ar  122  PHE122     -0.0003
     91  CZ        67.7730   39.3650   85.4590 C.ar  122  PHE122     -0.0000
     92  N         58.3390   34.9170   98.5750 N.3   209  TYR209     -0.1241
     93  CA        58.5920   34.2180   97.3480 C.3   209  TYR209      0.1605
     94  C         59.6040   33.1390   97.6580 C.2   209  TYR209      0.2264
     95  O         60.3340   33.2170   98.6570 O.2   209  TYR209     -0.2867
     96  CB        59.1020   35.1900   96.2960 C.3   209  TYR209      0.0534
     97  CG        60.4730   35.8580   96.3340 C.ar  209  TYR209     -0.0201
     98  CD1       61.6570   35.1260   96.1810 C.ar  209  TYR209     -0.0009
     99  CD2       60.5320   37.2490   96.3670 C.ar  209  TYR209     -0.0009
    100  CE1       62.8730   35.7870   96.0410 C.ar  209  TYR209      0.0417
    101  CE2       61.7520   37.9140   96.2260 C.ar  209  TYR209      0.0417
    102  CZ        62.9120   37.1810   96.0600 C.ar  209  TYR209      0.1957
    103  OH        64.1300   37.8320   95.8970 O.3   209  TYR209     -0.2866
    104  N         71.0020   28.5720   88.7190 N.3   219  TRP219     -0.1241
    105  CA        72.3040   28.5070   89.3500 C.3   219  TRP219      0.1605
    106  C         72.4070   27.4880   90.4840 C.2   219  TRP219      0.2264
    107  O         73.3210   27.5810   91.3030 O.2   219  TRP219     -0.2867
    108  CB        72.6540   29.9280   89.8400 C.3   219  TRP219      0.0550
    109  CG        71.5460   30.6720   90.5890 C.ar  219  TRP219      0.0003
    110  CD1       71.4450   30.6020   91.9510 C.ar  219  TRP219      0.0946
    111  CD2       70.5630   31.4550   90.0230 C.ar  219  TRP219      0.0152
    112  NE1       70.4030   31.3360   92.2540 N.ar  219  TRP219     -0.2442
    113  CE2       69.8470   31.8600   91.1540 C.ar  219  TRP219      0.0810
    114  CE3       70.1610   31.8840   88.7530 C.ar  219  TRP219      0.0012
    115  CZ2       68.7310   32.6900   91.0410 C.ar  219  TRP219      0.0191
    116  CZ3       69.0430   32.7150   88.6320 C.ar  219  TRP219      0.0001
    117  CH2       68.3360   33.1140   89.7690 C.ar  219  TRP219      0.0015
    118  N         67.9910   34.1570   95.8190 N.3   298  CYS298     -0.1235
    119  CA        67.9690   35.2230   94.8210 C.3   298  CYS298      0.1677
    120  C         68.7420   36.3930   95.3930 C.2   298  CYS298      0.2270
    121  O         68.2060   37.2310   96.1300 O.2   298  CYS298     -0.2867
    122  CB        66.5500   35.7150   94.5030 C.3   298  CYS298      0.0956
    123  SG        65.3830   34.4230   94.0260 S.3   298  CYS298     -0.0801
    124  N         70.9260   38.3280   93.2990 N.3   300  LEU300     -0.1245
    125  CA        71.2040   39.2520   92.1960 C.3   300  LEU300      0.1561
    126  C         72.6070   39.8750   92.2900 C.2   300  LEU300      0.2260
    127  O         72.8640   41.0780   92.1280 O.2   300  LEU300     -0.2867
    128  CB        70.1310   40.3360   92.1850 C.3   300  LEU300      0.0270
    129  CG        69.9470   41.1240   90.9120 C.3   300  LEU300      0.0019
    130  CD1       69.0860   40.3070   89.9580 C.3   300  LEU300      0.0001
    131  CD2       69.3270   42.4800   91.2310 C.3   300  LEU300      0.0001
@<TRIPOS>BOND
     1    41    40    2
     2    37    36    2
     3    40    39    1
     4    40    42   am
     5    39    38    1
     6    38    35    1
     7    36    35    1
     8    35    34    1
     9    84    83    2
    10    34    24   am
    11    83    82    1
    12    81    82    1
    13    25    24    2
    14    24    23    1
    15    82    85    1
    16    18    17    2
    17    85    86    1
    18    17    16    1
    19    17    22   am
    20    16    15    1
    21    16    19    1
    22    23    22    1
    23    23    26    1
    24    87    86   ar
    25    87    89   ar
    26    49    51   ar
    27    49    48   ar
    28    21    19    1
    29    51    52   ar
    30    86    88   ar
    31    19    20    1
    32    89    91   ar
    33    26    27    1
    34    47    48    1
    35    47    44    1
    36    48    50   ar
    37    52    50   ar
    38    52    54   ar
    39    88    90   ar
    40    46    45    2
    41    50    53   ar
    42    44    43    1
    43    44    45    1
    44    91    90   ar
    45    54    56   ar
    46    27    28   ar
    47    27    29   ar
    48    28    30   ar
    49    53    55   ar
    50    29    31   ar
    51     7     9   ar
    52     7     6   ar
    53     9    10   ar
    54    56    55   ar
    55     3     2    1
    56     3     4    2
    57     2     1    1
    58     2     5    1
    59    30    32   ar
    60    31    32   ar
    61    10    12   ar
    62    10     8   ar
    63     6     5    1
    64     6     8   ar
    65    32    33    1
    66    12    14   ar
    67    63    65   ar
    68    63    62   ar
    69   116   114   ar
    70   116   117   ar
    71   104   105    1
    72   114   111   ar
    73     8    11   ar
    74    65    66   ar
    75   105   108    1
    76   105   106    1
    77    62    61    1
    78    62    64   ar
    79    61    58    1
    80    14    13   ar
    81   117   115   ar
    82   108   109    1
    83   130   129    1
    84   111   109   ar
    85   111   113   ar
    86    66    64   ar
    87    11    13   ar
    88   106   107    2
    89   109   110   ar
    90    73    75   ar
    91    73    72   ar
    92    57    58    1
    93   129   131    1
    94   129   128    1
    95    58    59    1
    96    75    76   ar
    97   115   113   ar
    98   113   112   ar
    99    71    72    1
   100    71    68    1
   101    72    74   ar
   102    67    59   am
   103    67    68    1
   104    70    69    2
   105    59    60    2
   106   110   112   ar
   107    76    74   ar
   108    76    78   ar
   109   127   126    2
   110   128   125    1
   111   125   126    1
   112   125   124    1
   113    68    69    1
   114    74    77   ar
   115    78    80   ar
   116    77    79   ar
   117    80    79   ar
   118   123   122    1
   119   122   119    1
   120   119   120    1
   121   119   118    1
   122   120   121    2
   123   103   102    1
   124   100   102   ar
   125   100    98   ar
   126   102   101   ar
   127    98    97   ar
   128   101    99   ar
   129    96    97    1
   130    96    93    1
   131    97    99   ar
   132    93    94    1
   133    93    92    1
   134    94    95    2
