@<TRIPOS>MOLECULE
tmp/1ah1A01.pdb
 83 77 0 0 0
SMALL
GASTEIGER

@<TRIPOS>ATOM
      1  N         -0.0130  -18.8160   -8.0130 N.3    17  ILE17      -0.1245
      2  CA         0.1310  -17.4370   -8.5500 C.3    17  ILE17       0.1561
      3  C         -0.8660  -16.5190   -7.8320 C.2    17  ILE17       0.2260
      4  O         -2.0400  -16.4930   -8.1510 O.2    17  ILE17      -0.2867
      5  CB        -0.1910  -17.5440  -10.0670 C.3    17  ILE17       0.0252
      6  CG1        1.0210  -18.0760  -10.8610 C.3    17  ILE17       0.0019
      7  CG2       -0.5490  -16.1570  -10.6390 C.3    17  ILE17       0.0019
      8  CD1        1.5530  -19.3950  -10.2880 C.3    17  ILE17       0.0001
      9  N         -1.8670  -12.7400   -7.2930 N.3    19  SER19      -0.1202
     10  CA        -1.5960  -11.3580   -7.7810 C.3    19  SER19       0.2020
     11  C         -2.7450  -10.4160   -7.4170 C.2    19  SER19       0.2619
     12  O         -3.9040  -10.7090   -7.6420 O.2    19  SER19      -0.2717
     13  CB        -1.4710  -11.5000   -9.3000 C.3    19  SER19       0.2103
     14  OG        -0.4020  -12.3880   -9.5980 O.3    19  SER19      -0.2182
     15  N         -2.4180   -9.2790   -6.8670 N.am   20  PHE20      -0.1961
     16  CA        -3.4620   -8.2820   -6.4880 C.3    20  PHE20       0.1771
     17  C         -2.8810   -6.8750   -6.5860 C.2    20  PHE20       0.2619
     18  O         -1.6780   -6.7000   -6.6640 O.2    20  PHE20      -0.2715
     19  CB        -3.8690   -8.6180   -5.0530 C.3    20  PHE20       0.0574
     20  CG        -2.6630   -8.6170   -4.1420 C.ar   20  PHE20      -0.0200
     21  CD1       -1.8520   -9.7810   -4.0480 C.ar   20  PHE20      -0.0042
     22  CD2       -2.3470   -7.4660   -3.3690 C.ar   20  PHE20      -0.0042
     23  CE1       -0.7260   -9.7950   -3.1840 C.ar   20  PHE20      -0.0003
     24  CE2       -1.2180   -7.4800   -2.5050 C.ar   20  PHE20      -0.0003
     25  CZ        -0.4080   -8.6460   -2.4130 C.ar   20  PHE20      -0.0000
     26  N         -3.7200   -5.8730   -6.6050 N.am   21  VAL21      -0.1977
     27  CA        -3.2020   -4.4770   -6.7240 C.3    21  VAL21       0.1596
     28  C         -3.6810   -3.6040   -5.5580 C.2    21  VAL21       0.2287
     29  O         -4.8650   -3.4320   -5.3390 O.2    21  VAL21      -0.2864
     30  CB        -3.7560   -3.9620   -8.0550 C.3    21  VAL21       0.0276
     31  CG1       -3.3120   -2.5120   -8.2850 C.3    21  VAL21       0.0022
     32  CG2       -3.2320   -4.8330   -9.1990 C.3    21  VAL21       0.0022
     33  N         11.4100    0.7910  -12.9850 N.3    58  GLU58      -0.1245
     34  CA        10.7010   -0.4120  -12.4500 C.3    58  GLU58       0.1567
     35  C         11.1730   -0.7290  -11.0250 C.2    58  GLU58       0.2260
     36  O         12.2570   -0.3550  -10.6220 O.2    58  GLU58      -0.2867
     37  CB        11.0770   -1.5480  -13.4030 C.3    58  GLU58       0.0388
     38  CG        10.5280   -1.2500  -14.8020 C.3    58  GLU58       0.1160
     39  CD         8.9960   -1.2260  -14.7650 C.2    58  GLU58       0.3649
     40  OE1        8.4290   -1.9470  -13.9590 O.co2  58  GLU58      -0.2457
     41  OE2        8.4170   -0.4880  -15.5450 O.co2  58  GLU58      -0.2457
     42  N          7.5000  -10.7930   -7.7230 N.3    68  THR68      -0.1203
     43  CA         7.5750   -9.8120   -8.8410 C.3    68  THR68       0.1994
     44  C          6.4510   -8.7940   -8.6590 C.2    68  THR68       0.2618
     45  O          5.3540   -9.1480   -8.2660 O.2    68  THR68      -0.2717
     46  CB         7.3920  -10.6350  -10.1230 C.3    68  THR68       0.1784
     47  OG1        7.4510   -9.7700  -11.2480 O.3    68  THR68      -0.2211
     48  CG2        6.0420  -11.3620  -10.1060 C.3    68  THR68       0.0376
     49  N          6.7100   -7.5370   -8.9130 N.am   69  GLY69      -0.1942
     50  CA         5.6430   -6.5170   -8.7190 C.3    69  GLY69       0.2014
     51  C          5.7110   -5.4400   -9.7980 C.2    69  GLY69       0.2639
     52  O          6.7490   -5.1640  -10.3660 O.2    69  GLY69      -0.2714
     53  N          4.5940   -4.8270  -10.0590 N.am   70  THR70      -0.1950
     54  CA         4.5230   -3.7470  -11.0730 C.3    70  THR70       0.1897
     55  C          3.8200   -2.5380  -10.4620 C.2    70  THR70       0.2313
     56  O          3.1560   -2.6410   -9.4480 O.2    70  THR70      -0.2863
     57  CB         3.6920   -4.3220  -12.2100 C.3    70  THR70       0.1794
     58  OG1        4.3270   -5.4810  -12.7280 O.3    70  THR70      -0.2208
     59  CG2        3.5270   -3.2830  -13.3190 C.3    70  THR70       0.0378
     60  N          0.7980   -3.1750   -8.5020 N.3    77  ASN77      -0.1240
     61  CA         0.3740   -4.5980   -8.6770 C.3    77  ASN77       0.1653
     62  C          1.4610   -5.5710   -8.1980 C.2    77  ASN77       0.2266
     63  O          2.5470   -5.6050   -8.7310 O.2    77  ASN77      -0.2867
     64  CB         0.1510   -4.7430  -10.1840 C.3    77  ASN77       0.1155
     65  CG        -0.5420   -6.0740  -10.4720 C.2    77  ASN77       0.2627
     66  OD1       -0.5070   -6.9910   -9.6740 O.2    77  ASN77      -0.2716
     67  ND2       -1.1720   -6.1930  -11.6130 N.am   77  ASN77      -0.0877
     68  N          2.6700   -9.5640   -7.6500 N.3    79  THR79      -0.1218
     69  CA         2.3450  -10.9680   -8.0600 C.3    79  THR79       0.1862
     70  C          3.2570  -11.9570   -7.3270 C.2    79  THR79       0.2287
     71  O          4.4600  -11.7840   -7.2730 O.2    79  THR79      -0.2866
     72  CB         2.6100  -11.0150   -9.5680 C.3    79  THR79       0.1770
     73  OG1        1.7940  -10.0500  -10.2180 O.3    79  THR79      -0.2211
     74  CG2        2.2870  -12.4120  -10.1140 C.3    79  THR79       0.0375
     75  N          4.5260  -15.9960   -6.9850 N.3    81  GLN81      -0.1245
     76  CA         4.4810  -17.3380   -7.6270 C.3    81  GLN81       0.1566
     77  C          5.2330  -18.3640   -6.7830 C.2    81  GLN81       0.2260
     78  O          6.4170  -18.2360   -6.5340 O.2    81  GLN81      -0.2867
     79  CB         5.1590  -17.1870   -8.9790 C.3    81  GLN81       0.0367
     80  CG         4.3640  -16.2120   -9.8430 C.3    81  GLN81       0.0905
     81  CD         5.0810  -16.0120  -11.1800 C.2    81  GLN81       0.2608
     82  OE1        5.7580  -16.9000  -11.6580 O.2    81  GLN81      -0.2717
     83  NE2        4.9610  -14.8730  -11.8060 N.am   81  GLN81      -0.0878
@<TRIPOS>BOND
     1    41    39   ar
     2    38    39    1
     3    38    37    1
     4    39    40   ar
     5    37    34    1
     6    59    57    1
     7    33    34    1
     8    58    57    1
     9    34    35    1
    10    57    54    1
    11    83    81   am
    12    82    81    2
    13    67    65   am
    14    47    46    1
    15    81    80    1
    16    54    55    1
    17    54    53    1
    18    35    36    2
    19     6     8    1
    20     6     5    1
    21     7     5    1
    22    65    64    1
    23    65    66    2
    24    55    56    2
    25    52    51    2
    26    73    72    1
    27    64    61    1
    28    46    48    1
    29    46    43    1
    30    74    72    1
    31     5     2    1
    32    53    51   am
    33    80    79    1
    34    51    50    1
    35    14    13    1
    36    72    69    1
    37    13    10    1
    38    32    30    1
    39    79    76    1
    40    49    50    1
    41    49    44   am
    42    43    44    1
    43    43    42    1
    44    63    62    2
    45    61    60    1
    46    61    62    1
    47    44    45    2
    48     2     1    1
    49     2     3    1
    50    31    30    1
    51     4     3    2
    52    69    68    1
    53    69    70    1
    54    30    27    1
    55    10    11    1
    56    10     9    1
    57    12    11    2
    58    76    75    1
    59    76    77    1
    60    11    15   am
    61    70    71    2
    62    15    16    1
    63    77    78    2
    64    27    26    1
    65    27    28    1
    66    18    17    2
    67    26    17   am
    68    17    16    1
    69    16    19    1
    70    28    29    2
    71    19    20    1
    72    20    21   ar
    73    20    22   ar
    74    21    23   ar
    75    22    24   ar
    76    23    25   ar
    77    24    25   ar
