@<TRIPOS>MOLECULE
tmp/1ahbA00.pdb
 149 146 0 0 0
SMALL
GASTEIGER

@<TRIPOS>ATOM
      1  N         57.5460   83.0510    9.1130 N.3    68  ASN68      -0.1225
      2  CA        58.2770   83.6240    7.9790 C.3    68  ASN68       0.1785
      3  C         59.3250   84.6970    8.3060 C.2    68  ASN68       0.2597
      4  O         59.9480   85.2740    7.3980 O.2    68  ASN68      -0.2718
      5  CB        57.2590   84.1940    6.9750 C.3    68  ASN68       0.1169
      6  CG        56.3210   85.2450    7.5520 C.2    68  ASN68       0.2627
      7  OD1       56.3780   85.6080    8.7290 O.2    68  ASN68      -0.2716
      8  ND2       55.4210   85.7830    6.7620 N.am   68  ASN68      -0.0877
      9  N         59.5770   84.9180    9.6000 N.am   69  VAL69      -0.1966
     10  CA        60.5170   85.9130   10.1510 C.3    69  VAL69       0.1727
     11  C         60.1180   87.3490    9.7110 C.2    69  VAL69       0.2616
     12  O         60.9560   88.2470    9.5270 O.2    69  VAL69      -0.2715
     13  CB        62.0460   85.6300    9.7300 C.3    69  VAL69       0.0290
     14  CG1       62.9150   86.0850   10.9050 C.3    69  VAL69       0.0023
     15  CG2       62.3820   84.1650    9.4680 C.3    69  VAL69       0.0023
     16  N         58.8220   87.6320    9.5420 N.am   70  TYR70      -0.1960
     17  CA        58.3580   88.9190    9.0360 C.3    70  TYR70       0.1771
     18  C         58.1110   89.8120   10.2140 C.2    70  TYR70       0.2619
     19  O         57.3890   89.4210   11.1400 O.2    70  TYR70      -0.2715
     20  CB        57.0730   88.7820    8.2880 C.3    70  TYR70       0.0574
     21  CG        56.7030   89.9490    7.3950 C.ar   70  TYR70      -0.0198
     22  CD1       55.9470   91.0320    7.8780 C.ar   70  TYR70      -0.0009
     23  CD2       57.1070   89.9000    6.0650 C.ar   70  TYR70      -0.0009
     24  CE1       55.5820   92.0840    7.0260 C.ar   70  TYR70       0.0417
     25  CE2       56.7410   90.9430    5.2160 C.ar   70  TYR70       0.0417
     26  CZ        55.9890   92.0160    5.7020 C.ar   70  TYR70       0.1957
     27  OH        55.6540   93.0020    4.8110 O.3    70  TYR70      -0.2866
     28  N         58.7340   90.9880   10.1650 N.am   71  ILE71      -0.1977
     29  CA        58.5720   92.0230   11.1990 C.3    71  ILE71       0.1596
     30  C         57.2200   92.6760   10.9450 C.2    71  ILE71       0.2287
     31  O         56.9790   93.1360    9.8310 O.2    71  ILE71      -0.2864
     32  CB        59.7910   93.0100   11.0940 C.3    71  ILE71       0.0276
     33  CG1       61.0380   92.2510   11.5670 C.3    71  ILE71       0.0022
     34  CG2       59.5870   94.2700   11.9370 C.3    71  ILE71       0.0022
     35  CD1       62.3840   92.9070   11.5370 C.3    71  ILE71       0.0001
     36  N         52.5310   97.8110   10.6730 N.3    83  PHE83      -0.1241
     37  CA        52.4910   98.0590    9.2290 C.3    83  PHE83       0.1605
     38  C         51.0640   98.0520    8.7470 C.2    83  PHE83       0.2264
     39  O         50.2120   97.3820    9.3390 O.2    83  PHE83      -0.2867
     40  CB        53.2010   96.9960    8.3950 C.3    83  PHE83       0.0534
     41  CG        54.6910   97.1120    8.5570 C.ar   83  PHE83      -0.0203
     42  CD1       55.3450   98.2230    8.0210 C.ar   83  PHE83      -0.0042
     43  CD2       55.3950   96.1160    9.2300 C.ar   83  PHE83      -0.0042
     44  CE1       56.7150   98.3570    8.1910 C.ar   83  PHE83      -0.0003
     45  CE2       56.7660   96.2510    9.4100 C.ar   83  PHE83      -0.0003
     46  CZ        57.4170   97.3620    8.8740 C.ar   83  PHE83      -0.0000
     47  N         54.8500   96.5900    4.9820 N.3   109  GLY109     -0.1210
     48  CA        56.2100   96.3110    5.3700 C.3   109  GLY109      0.1956
     49  C         57.0430   95.6370    4.3370 C.2   109  GLY109      0.2612
     50  O         58.0840   95.1100    4.6660 O.2   109  GLY109     -0.2717
     51  N         56.6300   95.6080    3.0910 N.am  110  ASN110     -0.1960
     52  CA        57.5080   95.0380    2.0900 C.3   110  ASN110      0.1819
     53  C         58.5070   96.0720    1.6090 C.2   110  ASN110      0.2621
     54  O         58.2890   97.2820    1.7130 O.2   110  ASN110     -0.2715
     55  CB        56.7120   94.5270    0.9140 C.3   110  ASN110      0.1195
     56  CG        56.1510   95.6350    0.0650 C.2   110  ASN110      0.2630
     57  OD1       56.7730   96.2370   -0.8160 O.2   110  ASN110     -0.2716
     58  ND2       54.9180   95.9230    0.3900 N.am  110  ASN110     -0.0877
     59  N         59.5780   95.5840    1.0420 N.am  111  TYR111     -0.1960
     60  CA        60.6680   96.3790    0.5830 C.3   111  TYR111      0.1771
     61  C         60.3050   97.4320   -0.4270 C.2   111  TYR111      0.2619
     62  O         60.8380   98.5390   -0.2700 O.2   111  TYR111     -0.2715
     63  CB        61.7420   95.4810   -0.0090 C.3   111  TYR111      0.0574
     64  CG        62.5620   94.7590    1.0430 C.ar  111  TYR111     -0.0198
     65  CD1       62.9930   95.4510    2.1660 C.ar  111  TYR111     -0.0009
     66  CD2       62.9810   93.4410    0.8440 C.ar  111  TYR111     -0.0009
     67  CE1       63.8310   94.8440    3.0880 C.ar  111  TYR111      0.0417
     68  CE2       63.8260   92.8240    1.7740 C.ar  111  TYR111      0.0417
     69  CZ        64.2400   93.5340    2.8930 C.ar  111  TYR111      0.1957
     70  OH        65.1100   92.9920    3.8120 O.3   111  TYR111     -0.2866
     71  N         59.4780   97.1990   -1.4460 N.am  112  GLU112     -0.1977
     72  CA        59.1500   98.2520   -2.4100 C.3   112  GLU112      0.1602
     73  C         58.5140   99.4660   -1.7600 C.2   112  GLU112      0.2287
     74  O         58.9860  100.5960   -1.8840 O.2   112  GLU112     -0.2864
     75  CB        58.2040   97.7190   -3.5020 C.3   112  GLU112      0.0415
     76  CG        58.9310   97.0670   -4.6910 C.3   112  GLU112      0.1163
     77  CD        59.9180   97.9980   -5.4190 C.2   112  GLU112      0.3649
     78  OE1       59.5040   99.0200   -5.9810 O.co2 112  GLU112     -0.2457
     79  OE2       61.1200   97.7090   -5.4150 O.co2 112  GLU112     -0.2457
     80  N         65.1160   95.3870    9.4790 N.3   155  ILE155     -0.1245
     81  CA        64.7920   94.0990    8.8550 C.3   155  ILE155      0.1561
     82  C         66.0400   93.3310    8.4360 C.2   155  ILE155      0.2260
     83  O         66.1790   92.1390    8.7040 O.2   155  ILE155     -0.2867
     84  CB        63.8700   94.3650    7.6290 C.3   155  ILE155      0.0252
     85  CG1       62.5140   94.8370    8.1590 C.3   155  ILE155      0.0019
     86  CG2       63.7330   93.1340    6.7390 C.3   155  ILE155      0.0019
     87  CD1       61.6080   95.5050    7.1100 C.3   155  ILE155      0.0001
     88  N         66.1540   90.0730   10.7060 N.3   159  ALA159     -0.1231
     89  CA        65.4750   89.0500    9.9540 C.3   159  ALA159      0.1694
     90  C         66.3160   88.5010    8.8240 C.2   159  ALA159      0.2591
     91  O         66.4030   87.2770    8.6770 O.2   159  ALA159     -0.2718
     92  CB        64.1870   89.6140    9.3690 C.3   159  ALA159      0.0304
     93  N         66.9750   89.3310    8.0160 N.am  160  GLU160     -0.1979
     94  CA        67.7550   88.8080    6.9170 C.3   160  GLU160      0.1602
     95  C         69.0200   88.1140    7.3350 C.2   160  GLU160      0.2287
     96  O         69.4990   87.2010    6.6640 O.2   160  GLU160     -0.2864
     97  CB        68.1160   89.9210    5.9510 C.3   160  GLU160      0.0415
     98  CG        66.9090   90.6040    5.2750 C.3   160  GLU160      0.1163
     99  CD        66.0050   89.7430    4.4110 C.2   160  GLU160      0.3649
    100  OE1       66.0160   88.5160    4.4630 O.co2 160  GLU160     -0.2457
    101  OE2       65.1910   90.2880    3.6970 O.co2 160  GLU160     -0.2457
    102  N         68.1150   84.5500    8.3460 N.3   163  ARG163     -0.1245
    103  CA        67.8740   83.7080    7.1990 C.3   163  ARG163      0.1563
    104  C         69.1340   83.2870    6.4800 C.2   163  ARG163      0.2260
    105  O         69.1450   82.1740    5.9550 O.2   163  ARG163     -0.2867
    106  CB        66.9650   84.4300    6.2170 C.3   163  ARG163      0.0307
    107  CG        65.5820   84.7910    6.7580 C.3   163  ARG163      0.0489
    108  CD        64.8810   85.7260    5.7790 C.3   163  ARG163      0.2205
    109  NE        63.4850   85.9350    6.1300 N.pl3 163  ARG163     -0.0865
    110  CZ        62.9050   87.1360    6.1080 C.cat 163  ARG163      0.5346
    111  NH1       63.6030   88.2210    5.7730 N.pl3 163  ARG163      0.1354
    112  NH2       61.5930   87.2230    6.3730 N.pl3 163  ARG163      0.1354
    113  N         68.4610   88.4850   -0.2590 N.3   189  GLU189     -0.1231
    114  CA        67.2030   88.9160    0.3720 C.3   189  GLU189      0.1699
    115  C         65.9700   88.6730   -0.4700 C.2   189  GLU189      0.2592
    116  O         64.8960   88.2330   -0.0590 O.2   189  GLU189     -0.2718
    117  CB        67.1860   90.4040    0.6730 C.3   189  GLU189      0.0402
    118  CG        68.3680   90.8010    1.5580 C.3   189  GLU189      0.1161
    119  CD        68.5410   92.2710    1.8940 C.2   189  GLU189      0.3649
    120  OE1       68.0130   93.1490    1.2000 O.co2 189  GLU189     -0.2457
    121  OE2       69.2540   92.5460    2.8510 O.co2 189  GLU189     -0.2457
    122  N         66.1550   88.9680   -1.7360 N.am  190  ASN190     -0.1974
    123  CA        65.0670   88.8290   -2.6500 C.3   190  ASN190      0.1688
    124  C         64.7860   87.3970   -3.0250 C.2   190  ASN190      0.2292
    125  O         63.6860   87.1120   -3.5050 O.2   190  ASN190     -0.2864
    126  CB        65.3590   89.5790   -3.8950 C.3   190  ASN190      0.1181
    127  CG        65.2720   91.0800   -3.7150 C.2   190  ASN190      0.2629
    128  OD1       64.5900   91.6620   -2.8760 O.2   190  ASN190     -0.2716
    129  ND2       66.0350   91.7780   -4.5240 N.am  190  ASN190     -0.0877
    130  N         64.9500   84.4870   -0.9670 N.3   192  TRP192     -0.1227
    131  CA        64.6090   83.5470    0.0910 C.3   192  TRP192      0.1737
    132  C         63.4130   82.6630   -0.2600 C.2   192  TRP192      0.2596
    133  O         63.4600   81.4520   -0.0840 O.2   192  TRP192     -0.2718
    134  CB        64.3110   84.3060    1.3970 C.3   192  TRP192      0.0564
    135  CG        64.1530   83.4300    2.6320 C.ar  192  TRP192      0.0003
    136  CD1       65.1100   82.5290    3.0120 C.ar  192  TRP192      0.0946
    137  CD2       63.1060   83.4550    3.5160 C.ar  192  TRP192      0.0152
    138  NE1       64.6880   81.9850    4.1370 N.ar  192  TRP192     -0.2442
    139  CE2       63.4950   82.5110    4.4560 C.ar  192  TRP192      0.0810
    140  CE3       61.9060   84.1160    3.6800 C.ar  192  TRP192      0.0012
    141  CZ2       62.7310   82.2260    5.5630 C.ar  192  TRP192      0.0191
    142  CZ3       61.1190   83.8320    4.7880 C.ar  192  TRP192      0.0001
    143  CH2       61.5220   82.8940    5.7140 C.ar  192  TRP192      0.0015
    144  N         62.3230   83.2070   -0.7450 N.am  193  SER193     -0.1952
    145  CA        61.1630   82.4510   -1.1370 C.3   193  SER193      0.1924
    146  C         61.5440   81.4360   -2.2270 C.2   193  SER193      0.2314
    147  O         61.3830   80.2280   -2.0290 O.2   193  SER193     -0.2863
    148  CB        60.1430   83.5380   -1.5460 C.3   193  SER193      0.2116
    149  OG        58.8950   83.1270   -2.0880 O.3   193  SER193     -0.2180
@<TRIPOS>BOND
     1    78    77   ar
     2    77    79   ar
     3    77    76    1
     4    76    75    1
     5   129   127   am
     6   126   127    1
     7   126   123    1
     8   127   128    2
     9   125   124    2
    10    75    72    1
    11   124   123    1
    12   123   122    1
    13    72    73    1
    14    72    71    1
    15   146   147    2
    16   146   145    1
    17   149   148    1
    18    74    73    2
    19   122   115   am
    20   148   145    1
    21    71    61   am
    22   145   144    1
    23   130   131    1
    24    57    56    2
    25   144   132   am
    26   115   116    2
    27   115   114    1
    28    61    62    2
    29    61    60    1
    30   132   133    2
    31   132   131    1
    32   113   114    1
    33    63    60    1
    34    63    64    1
    35    56    58   am
    36    56    55    1
    37   131   134    1
    38   114   117    1
    39    60    59    1
    40   117   118    1
    41    66    64   ar
    42    66    68   ar
    43    55    52    1
    44    59    53   am
    45    64    65   ar
    46   120   119   ar
    47   134   135    1
    48   118   119    1
    49    53    54    2
    50    53    52    1
    51    68    69   ar
    52   119   121   ar
    53    52    51    1
    54    65    67   ar
    55   135   136   ar
    56   135   137   ar
    57    69    67   ar
    58    69    70    1
    59   136   138   ar
    60    51    49   am
    61   137   140   ar
    62   137   139   ar
    63   140   142   ar
    64   101    99   ar
    65   138   139   ar
    66    49    50    2
    67    49    48    1
    68    99   100   ar
    69    99    98    1
    70   139   141   ar
    71   142   143   ar
    72    27    26    1
    73    47    48    1
    74    25    26   ar
    75    25    23   ar
    76    98    97    1
    77   141   143   ar
    78    26    24   ar
    79   111   110    1
    80   108   109    1
    81   108   107    1
    82    97    94    1
    83   105   104    2
    84    23    21   ar
    85   110   109    2
    86   110   112    1
    87   106   107    1
    88   106   103    1
    89   104   103    1
    90    96    95    2
    91    86    84    1
    92     8     6   am
    93    94    95    1
    94    94    93    1
    95     5     6    1
    96     5     2    1
    97    24    22   ar
    98    87    85    1
    99   103   102    1
   100    21    22   ar
   101    21    20    1
   102     4     3    2
   103     6     7    2
   104    84    85    1
   105    84    81    1
   106     2     3    1
   107     2     1    1
   108    93    90   am
   109    42    44   ar
   110    42    41   ar
   111    44    46   ar
   112    20    17    1
   113     3     9   am
   114    40    41    1
   115    40    37    1
   116    82    83    2
   117    82    81    1
   118    41    43   ar
   119    91    90    2
   120    38    37    1
   121    38    39    2
   122    90    89    1
   123    81    80    1
   124    46    45   ar
   125    17    16    1
   126    17    18    1
   127    37    36    1
   128    43    45   ar
   129    92    89    1
   130    15    13    1
   131    12    11    2
   132    16    11   am
   133     9    10    1
   134    11    10    1
   135    13    10    1
   136    13    14    1
   137    31    30    2
   138    89    88    1
   139    28    18   am
   140    28    29    1
   141    18    19    2
   142    30    29    1
   143    32    29    1
   144    32    33    1
   145    32    34    1
   146    35    33    1
