@<TRIPOS>MOLECULE
tmp/1ahfA01.pdb
 134 126 0 0 0
SMALL
GASTEIGER

@<TRIPOS>ATOM
      1  N        -17.0970   47.2710   30.4200 N.3    11  ASP11      -0.1239
      2  CA       -16.3060   48.4500   30.1880 C.3    11  ASP11       0.1674
      3  C        -17.2450   49.5950   29.8650 C.2    11  ASP11       0.2266
      4  O        -18.1330   49.4880   29.0120 O.2    11  ASP11      -0.2867
      5  CB       -15.2150   48.3010   29.1290 C.3    11  ASP11       0.1410
      6  CG       -14.3520   49.5100   29.1980 C.2    11  ASP11       0.3668
      7  OD1      -14.5910   50.5600   28.6100 O.co2  11  ASP11      -0.2456
      8  OD2      -13.3500   49.3250   30.0180 O.co2  11  ASP11      -0.2456
      9  N        -16.7290   51.9220   28.2410 N.3    13  ILE13      -0.1231
     10  CA       -16.5700   52.3040   26.8650 C.3    13  ILE13       0.1692
     11  C        -16.7910   51.1160   25.9870 C.2    13  ILE13       0.2591
     12  O        -17.7040   51.1020   25.1640 O.2    13  ILE13      -0.2718
     13  CB       -15.3220   53.1090   26.5020 C.3    13  ILE13       0.0266
     14  CG1      -15.3630   54.4530   27.2510 C.3    13  ILE13       0.0019
     15  CG2      -15.3510   53.3680   24.9940 C.3    13  ILE13       0.0020
     16  CD1      -14.0080   55.1450   27.3720 C.3    13  ILE13       0.0001
     17  N        -15.9640   50.1100   26.1940 N.am   14  LEU14      -0.1980
     18  CA       -16.0630   48.9150   25.4000 C.3    14  LEU14       0.1596
     19  C        -17.4860   48.3360   25.4280 C.2    14  LEU14       0.2287
     20  O        -18.0540   47.8930   24.4240 O.2    14  LEU14      -0.2864
     21  CB       -14.9440   47.9080   25.7480 C.3    14  LEU14       0.0297
     22  CG       -13.6460   48.1850   24.9970 C.3    14  LEU14       0.0022
     23  CD1      -13.8360   49.2920   23.9550 C.3    14  LEU14       0.0001
     24  CD2      -12.5530   48.5720   25.9880 C.3    14  LEU14       0.0001
     25  N        -16.8430   55.1950   21.4960 N.3    33  ILE33      -0.1231
     26  CA       -15.4380   54.8740   21.4120 C.3    33  ILE33       0.1692
     27  C        -14.7180   55.7660   20.4370 C.2    33  ILE33       0.2593
     28  O        -15.2770   56.2790   19.4660 O.2    33  ILE33      -0.2718
     29  CB       -15.2840   53.4110   21.1440 C.3    33  ILE33       0.0266
     30  CG1      -13.8410   53.0570   20.9430 C.3    33  ILE33       0.0019
     31  CG2      -16.1040   53.1030   19.9120 C.3    33  ILE33       0.0020
     32  CD1      -13.5700   51.6100   21.3110 C.3    33  ILE33       0.0001
     33  N        -13.4610   56.0220   20.7320 N.am   34  GLY34      -0.1942
     34  CA       -12.6810   56.9170   19.8940 C.3    34  GLY34       0.2014
     35  C        -12.1040   56.2460   18.6520 C.2    34  GLY34       0.2638
     36  O        -11.0180   55.6600   18.6670 O.2    34  GLY34      -0.2714
     37  N        -12.8300   56.3330   17.5610 N.am   35  LEU35      -0.1977
     38  CA       -12.3610   55.7350   16.3410 C.3    35  LEU35       0.1596
     39  C        -12.4800   56.8590   15.3480 C.2    35  LEU35       0.2287
     40  O        -13.4160   57.6490   15.4780 O.2    35  LEU35      -0.2864
     41  CB       -13.3110   54.5810   15.9880 C.3    35  LEU35       0.0297
     42  CG       -12.8040   53.1350   16.1450 C.3    35  LEU35       0.0022
     43  CD1      -11.6680   52.9780   17.1310 C.3    35  LEU35       0.0001
     44  CD2      -13.9470   52.2280   16.5630 C.3    35  LEU35       0.0001
     45  N         -2.1470   50.9570   25.7250 N.3   104  SER104     -0.1217
     46  CA        -2.6620   50.2050   26.8270 C.3   104  SER104      0.1889
     47  C         -1.5890   49.3360   27.4860 C.2   104  SER104      0.2288
     48  O         -1.2750   49.5520   28.6340 O.2   104  SER104     -0.2866
     49  CB        -3.7900   49.2960   26.3570 C.3   104  SER104      0.2089
     50  OG        -4.9250   50.0440   26.0370 O.3   104  SER104     -0.2183
     51  N         -9.3470   59.0380   31.7000 N.3   130  TRP130     -0.1241
     52  CA        -9.6350   57.8820   30.8970 C.3   130  TRP130      0.1605
     53  C         -9.8930   56.6850   31.8360 C.2   130  TRP130      0.2264
     54  O         -9.0240   56.2530   32.5590 O.2   130  TRP130     -0.2867
     55  CB        -8.4180   57.6930   29.9840 C.3   130  TRP130      0.0550
     56  CG        -8.6560   56.6490   29.0050 C.ar  130  TRP130      0.0003
     57  CD1       -9.7330   56.5890   28.2250 C.ar  130  TRP130      0.0946
     58  CD2       -7.8640   55.4960   28.7420 C.ar  130  TRP130      0.0152
     59  NE1       -9.6790   55.4640   27.4620 N.ar  130  TRP130     -0.2442
     60  CE2       -8.5410   54.7740   27.7470 C.ar  130  TRP130      0.0810
     61  CE3       -6.6450   55.0240   29.2140 C.ar  130  TRP130      0.0012
     62  CZ2       -8.0430   53.5880   27.2210 C.ar  130  TRP130      0.0191
     63  CZ3       -6.1340   53.8560   28.6950 C.ar  130  TRP130      0.0001
     64  CH2       -6.8320   53.1410   27.7140 C.ar  130  TRP130      0.0015
     65  N         -9.9430   53.5370   31.8360 N.3   132  ASN132     -0.1240
     66  CA        -9.0240   52.4150   31.9280 C.3   132  ASN132      0.1653
     67  C         -7.7450   52.6760   32.7210 C.2   132  ASN132      0.2266
     68  O         -6.9240   51.7830   32.9600 O.2   132  ASN132     -0.2867
     69  CB        -8.7160   51.8170   30.5500 C.3   132  ASN132      0.1155
     70  CG        -8.5230   50.3240   30.6210 C.2   132  ASN132      0.2627
     71  OD1       -7.4530   49.8050   30.2490 O.2   132  ASN132     -0.2716
     72  ND2       -9.5500   49.6330   31.1220 N.am  132  ASN132     -0.0877
     73  N         -7.9950   63.2740   27.2110 N.3   183  ASN183     -0.1240
     74  CA        -9.1540   62.4030   27.0800 C.3   183  ASN183      0.1653
     75  C         -9.7360   62.2090   28.4560 C.2   183  ASN183      0.2266
     76  O         -9.0250   61.7290   29.3290 O.2   183  ASN183     -0.2867
     77  CB        -8.7190   61.0370   26.5150 C.3   183  ASN183      0.1155
     78  CG        -9.8880   60.1040   26.2990 C.2   183  ASN183      0.2627
     79  OD1      -11.0220   60.4330   26.7080 O.2   183  ASN183     -0.2716
     80  ND2       -9.6170   58.9420   25.6780 N.am  183  ASN183     -0.0877
     81  N         -2.4530   60.5220   21.1600 N.3   214  TYR214     -0.1241
     82  CA        -2.9430   61.2690   20.0230 C.3   214  TYR214      0.1605
     83  C         -1.9110   62.1720   19.4120 C.2   214  TYR214      0.2264
     84  O         -2.2410   63.2790   19.0290 O.2   214  TYR214     -0.2867
     85  CB        -4.0150   62.1980   20.5480 C.3   214  TYR214      0.0534
     86  CG        -5.1710   61.3840   20.9400 C.ar  214  TYR214     -0.0201
     87  CD1       -6.0760   61.1510   19.9200 C.ar  214  TYR214     -0.0009
     88  CD2       -5.4000   60.8440   22.2100 C.ar  214  TYR214     -0.0009
     89  CE1       -7.2000   60.3700   20.1530 C.ar  214  TYR214      0.0417
     90  CE2       -6.5260   60.0540   22.4640 C.ar  214  TYR214      0.0417
     91  CZ        -7.4070   59.8050   21.4130 C.ar  214  TYR214      0.1957
     92  OH        -8.4930   59.0120   21.6470 O.3   214  TYR214     -0.2866
     93  N         -4.3310   55.5200   16.9320 N.3   246  LYS246     -0.1245
     94  CA        -5.1320   56.5700   16.4000 C.3   246  LYS246      0.1561
     95  C         -4.4700   57.3140   15.2550 C.2   246  LYS246      0.2260
     96  O         -5.0590   57.4420   14.1750 O.2   246  LYS246     -0.2867
     97  CB        -5.6260   57.3980   17.5930 C.3   246  LYS246      0.0271
     98  CG        -6.7880   56.7710   18.4640 C.3   246  LYS246      0.0035
     99  CD        -6.2900   56.4040   19.8910 C.3   246  LYS246      0.0206
    100  CE        -7.2500   55.6090   20.8230 C.3   246  LYS246      0.1093
    101  NZ        -6.8630   55.8470   22.2790 N.3   246  LYS246     -0.1314
    102  N         -2.4000   46.5760   17.7590 N.3   254  ARG254     -0.1245
    103  CA        -1.7650   46.8120   19.0510 C.3   254  ARG254      0.1563
    104  C         -0.3800   47.3670   18.9220 C.2   254  ARG254      0.2260
    105  O          0.6140   46.6650   19.0580 O.2   254  ARG254     -0.2867
    106  CB        -1.7490   45.5050   19.8320 C.3   254  ARG254      0.0307
    107  CG        -3.0990   44.7770   19.7820 C.3   254  ARG254      0.0489
    108  CD        -4.2470   45.7700   19.8600 C.3   254  ARG254      0.2205
    109  NE        -4.3650   46.2820   21.2030 N.pl3 254  ARG254     -0.0865
    110  CZ        -4.5850   47.5270   21.5770 C.cat 254  ARG254      0.5346
    111  NH1       -4.7260   48.4940   20.6950 N.pl3 254  ARG254      0.1354
    112  NH2       -4.6350   47.8530   22.8650 N.pl3 254  ARG254      0.1354
    113  N        -12.4430   64.1430   20.7600 N.3   348  PHE348     -0.1241
    114  CA       -13.6340   64.3890   21.5400 C.3   348  PHE348      0.1605
    115  C        -13.7680   65.7170   22.1920 C.2   348  PHE348      0.2264
    116  O        -12.8140   66.3770   22.6220 O.2   348  PHE348     -0.2867
    117  CB       -13.6970   63.4920   22.7830 C.3   348  PHE348      0.0534
    118  CG       -13.0290   62.1690   22.6880 C.ar  348  PHE348     -0.0203
    119  CD1      -13.7490   61.0840   22.1970 C.ar  348  PHE348     -0.0042
    120  CD2      -11.7160   62.0010   23.1110 C.ar  348  PHE348     -0.0042
    121  CE1      -13.1650   59.8260   22.0930 C.ar  348  PHE348     -0.0003
    122  CE2      -11.1180   60.7490   23.0140 C.ar  348  PHE348     -0.0003
    123  CZ       -11.8440   59.6740   22.5070 C.ar  348  PHE348     -0.0000
    124  N        -19.2950   62.7220   26.8290 N.3   374  ARG374     -0.1245
    125  CA       -18.1810   62.8290   25.9510 C.3   374  ARG374      0.1563
    126  C        -18.6200   62.2770   24.6350 C.2   374  ARG374      0.2260
    127  O        -19.1240   61.1460   24.5620 O.2   374  ARG374     -0.2867
    128  CB       -17.0520   61.9860   26.5300 C.3   374  ARG374      0.0307
    129  CG       -15.7740   61.8780   25.6960 C.3   374  ARG374      0.0489
    130  CD       -15.5890   60.4480   25.2210 C.3   374  ARG374      0.2205
    131  NE       -14.2960   59.8920   25.4800 N.pl3 374  ARG374     -0.0865
    132  CZ       -14.0370   58.6580   25.1000 C.cat 374  ARG374      0.5346
    133  NH1      -15.0080   57.9760   24.5040 N.pl3 374  ARG374      0.1354
    134  NH2      -12.8480   58.0830   25.2850 N.pl3 374  ARG374      0.1354
@<TRIPOS>BOND
     1    96    95    2
     2    95    94    1
     3    39    40    2
     4    39    38    1
     5    41    42    1
     6    41    38    1
     7    42    44    1
     8    42    43    1
     9    38    37    1
    10    94    93    1
    11    94    97    1
    12    37    35   am
    13    97    98    1
    14   102   103    1
    15    98    99    1
    16    35    36    2
    17    35    34    1
    18   104   103    1
    19   104   105    2
    20    84    83    2
    21   103   106    1
    22    83    82    1
    23    28    27    2
    24   107   106    1
    25   107   108    1
    26   108   109    1
    27    99   100    1
    28    34    33    1
    29    31    29    1
    30    87    89   ar
    31    87    86   ar
    32    82    85    1
    33    82    81    1
    34    89    91   ar
    35    27    33   am
    36    27    26    1
    37    85    86    1
    38   111   110    1
    39   113   114    1
    40   100   101    1
    41    86    88   ar
    42    30    29    1
    43    30    32    1
    44    29    26    1
    45   109   110    2
    46    26    25    1
    47    91    92    1
    48    91    90   ar
    49   114   115    1
    50   114   117    1
    51   110   112    1
    52   121   119   ar
    53   121   123   ar
    54   115   116    2
    55   119   118   ar
    56    88    90   ar
    57   123   122   ar
    58   118   117    1
    59   118   120   ar
    60   122   120   ar
    61    23    22    1
    62    20    19    2
    63   133   132    1
    64   127   126    2
    65   126   125    1
    66    15    13    1
    67    22    21    1
    68    22    24    1
    69   132   134    1
    70   132   131    2
    71    12    11    2
    72   130   131    1
    73   130   129    1
    74    18    19    1
    75    18    21    1
    76    18    17    1
    77    80    78   am
    78   129   128    1
    79    45    46    1
    80   125   128    1
    81   125   124    1
    82    11    17   am
    83    11    10    1
    84    50    49    1
    85    78    77    1
    86    78    79    2
    87    49    46    1
    88    13    10    1
    89    13    14    1
    90    77    74    1
    91    46    47    1
    92    10     9    1
    93    74    73    1
    94    74    75    1
    95    62    64   ar
    96    62    60   ar
    97    14    16    1
    98    59    60   ar
    99    59    57   ar
   100    47    48    2
   101    64    63   ar
   102    60    58   ar
   103    57    56   ar
   104    75    76    2
   105     7     6   ar
   106    63    61   ar
   107    58    56   ar
   108    58    61   ar
   109    56    55    1
   110     4     3    2
   111     5     6    1
   112     5     2    1
   113     6     8   ar
   114     3     2    1
   115    55    52    1
   116     2     1    1
   117    71    70    2
   118    69    70    1
   119    69    66    1
   120    70    72   am
   121    52    51    1
   122    52    53    1
   123    65    66    1
   124    53    54    2
   125    66    67    1
   126    67    68    2
