@<TRIPOS>MOLECULE
tmp/1ahgA00.pdb
 213 202 0 0 0
SMALL
GASTEIGER

@<TRIPOS>ATOM
      1  N        -16.5120   47.9590   30.5760 N.3    11  ASP11      -0.1239
      2  CA       -15.6450   49.1250   30.3240 C.3    11  ASP11       0.1674
      3  C        -16.5850   50.2340   29.9580 C.2    11  ASP11       0.2266
      4  O        -17.5440   50.0060   29.2370 O.2    11  ASP11      -0.2867
      5  CB       -14.6540   48.9010   29.1510 C.3    11  ASP11       0.1410
      6  CG       -13.6970   50.0410   28.8380 C.2    11  ASP11       0.3668
      7  OD1      -14.0580   51.1790   28.5770 O.co2  11  ASP11      -0.2456
      8  OD2      -12.4290   49.6660   28.8190 O.co2  11  ASP11      -0.2456
      9  N        -16.0670   52.8790   28.0370 N.3    13  ILE13      -0.1231
     10  CA       -15.8750   53.2700   26.6460 C.3    13  ILE13       0.1692
     11  C        -16.1180   52.1120   25.6800 C.2    13  ILE13       0.2591
     12  O        -17.0730   52.1420   24.9190 O.2    13  ILE13      -0.2718
     13  CB       -14.5700   54.0220   26.3990 C.3    13  ILE13       0.0266
     14  CG1      -14.5890   55.3180   27.2090 C.3    13  ILE13       0.0019
     15  CG2      -14.4720   54.3660   24.9210 C.3    13  ILE13       0.0020
     16  CD1      -13.2060   55.7550   27.6570 C.3    13  ILE13       0.0001
     17  N        -15.2800   51.0710   25.7320 N.am   14  LEU14      -0.1980
     18  CA       -15.4490   49.9150   24.8560 C.3    14  LEU14       0.1596
     19  C        -16.8360   49.3150   24.9900 C.2    14  LEU14       0.2287
     20  O        -17.4390   48.8630   24.0120 O.2    14  LEU14      -0.2864
     21  CB       -14.4090   48.8050   25.1090 C.3    14  LEU14       0.0297
     22  CG       -13.1090   48.9740   24.3390 C.3    14  LEU14       0.0022
     23  CD1      -11.9750   48.8900   25.3490 C.3    14  LEU14       0.0001
     24  CD2      -12.9490   47.8500   23.3130 C.3    14  LEU14       0.0001
     25  N        -16.1380   55.9150   21.4500 N.3    33  ILE33      -0.1231
     26  CA       -14.7380   55.5350   21.2910 C.3    33  ILE33       0.1692
     27  C        -13.9470   56.3850   20.2880 C.2    33  ILE33       0.2593
     28  O        -14.4390   56.7430   19.2180 O.2    33  ILE33      -0.2718
     29  CB       -14.5840   54.0090   21.2020 C.3    33  ILE33       0.0266
     30  CG1      -13.2200   53.5330   20.6970 C.3    33  ILE33       0.0019
     31  CG2      -15.7120   53.3670   20.4160 C.3    33  ILE33       0.0020
     32  CD1      -12.8380   52.1480   21.2240 C.3    33  ILE33       0.0001
     33  N        -12.7280   56.7370   20.6950 N.am   34  GLY34      -0.1942
     34  CA       -11.8010   57.5910   19.9480 C.3    34  GLY34       0.2014
     35  C        -11.1220   56.9430   18.7460 C.2    34  GLY34       0.2638
     36  O         -9.9700   56.5110   18.7950 O.2    34  GLY34      -0.2714
     37  N        -11.8720   56.9300   17.6720 N.am   35  LEU35      -0.1977
     38  CA       -11.4750   56.4270   16.3940 C.3    35  LEU35       0.1596
     39  C        -11.6370   57.5780   15.3980 C.2    35  LEU35       0.2287
     40  O        -12.6560   58.2830   15.4330 O.2    35  LEU35      -0.2864
     41  CB       -12.4350   55.2900   15.9930 C.3    35  LEU35       0.0297
     42  CG       -11.9540   53.8810   16.2960 C.3    35  LEU35       0.0022
     43  CD1      -10.8630   53.9000   17.3670 C.3    35  LEU35       0.0001
     44  CD2      -13.1450   53.0470   16.7480 C.3    35  LEU35       0.0001
     45  N          0.4700   48.1560   22.5000 N.3   102  GLY102     -0.1210
     46  CA        -0.3360   49.3580   22.5940 C.3   102  GLY102      0.1956
     47  C          0.2040   50.2570   23.6850 C.2   102  GLY102      0.2612
     48  O          1.2890   49.9960   24.2610 O.2   102  GLY102     -0.2717
     49  N         -0.5690   51.3350   23.9260 N.am  103  GLY103     -0.1942
     50  CA        -0.2570   52.3160   24.9630 C.3   103  GLY103      0.2014
     51  C         -0.6800   51.6920   26.2640 C.2   103  GLY103      0.2639
     52  O         -0.0490   51.8530   27.2900 O.2   103  GLY103     -0.2714
     53  N         -1.7570   50.8970   26.1640 N.am  104  SER104     -0.1949
     54  CA        -2.2120   50.1590   27.3020 C.3   104  SER104      0.1924
     55  C         -1.0900   49.3150   27.8300 C.2   104  SER104      0.2314
     56  O         -0.5340   49.6360   28.8560 O.2   104  SER104     -0.2863
     57  CB        -3.4020   49.3490   26.9660 C.3   104  SER104      0.2116
     58  OG        -4.3150   50.2590   26.4110 O.3   104  SER104     -0.2180
     59  N          1.5870   51.0400   29.6210 N.3   107  LEU107     -0.1245
     60  CA         1.1350   51.5350   30.9060 C.3   107  LEU107      0.1561
     61  C          1.3920   50.4150   31.9050 C.2   107  LEU107      0.2260
     62  O          2.2430   50.5400   32.8020 O.2   107  LEU107     -0.2867
     63  CB        -0.3380   51.9830   30.8780 C.3   107  LEU107      0.0270
     64  CG        -0.5630   53.3660   30.2420 C.3   107  LEU107      0.0019
     65  CD1       -2.0580   53.6330   30.0900 C.3   107  LEU107      0.0001
     66  CD2        0.0280   54.4530   31.1070 C.3   107  LEU107      0.0001
     67  N         -8.4110   59.5060   31.9940 N.3   130  TRP130     -0.1241
     68  CA        -8.9720   58.4820   31.1360 C.3   130  TRP130      0.1605
     69  C         -9.2120   57.2480   32.0460 C.2   130  TRP130      0.2264
     70  O         -8.2990   56.7580   32.7390 O.2   130  TRP130     -0.2867
     71  CB        -8.0650   58.2460   29.9120 C.3   130  TRP130      0.0550
     72  CG        -8.2390   56.9260   29.2360 C.ar  130  TRP130      0.0003
     73  CD1       -9.3140   56.5240   28.5440 C.ar  130  TRP130      0.0946
     74  CD2       -7.2980   55.8460   29.1690 C.ar  130  TRP130      0.0152
     75  NE1       -9.1330   55.2430   28.0690 N.ar  130  TRP130     -0.2442
     76  CE2       -7.8890   54.8160   28.4250 C.ar  130  TRP130      0.0810
     77  CE3       -6.0200   55.6540   29.6520 C.ar  130  TRP130      0.0012
     78  CZ2       -7.2230   53.6310   28.1380 C.ar  130  TRP130      0.0191
     79  CZ3       -5.3800   54.4520   29.4100 C.ar  130  TRP130      0.0001
     80  CH2       -5.9720   53.4520   28.6590 C.ar  130  TRP130      0.0015
     81  N         -8.9140   54.3270   32.4550 N.3   132  ASN132     -0.1225
     82  CA        -8.1820   53.0670   32.5660 C.3   132  ASN132      0.1785
     83  C         -6.8870   53.2090   33.2670 C.2   132  ASN132      0.2597
     84  O         -6.1540   52.2550   33.5350 O.2   132  ASN132     -0.2718
     85  CB        -7.8570   52.4790   31.1980 C.3   132  ASN132      0.1169
     86  CG        -8.7680   51.3600   30.8740 C.2   132  ASN132      0.2627
     87  OD1       -9.9610   51.5880   30.7760 O.2   132  ASN132     -0.2716
     88  ND2       -8.2100   50.1650   30.7480 N.am  132  ASN132     -0.0877
     89  N         -6.5850   54.4260   33.5110 N.am  133  HIS133     -0.1975
     90  CA        -5.3700   54.6800   34.1750 C.3   133  HIS133      0.1656
     91  C         -5.4480   54.0350   35.5710 C.2   133  HIS133      0.2291
     92  O         -4.5460   53.3660   36.0440 O.2   133  HIS133     -0.2864
     93  CB        -5.2410   56.2040   34.1740 C.3   133  HIS133      0.0771
     94  CG        -4.5360   56.7640   32.9730 C.ar  133  HIS133      0.0820
     95  ND1       -4.9830   57.9100   32.3410 N.ar  133  HIS133     -0.2267
     96  CD2       -3.3880   56.3510   32.3500 C.ar  133  HIS133      0.1154
     97  CE1       -4.1050   58.1650   31.3700 C.ar  133  HIS133      0.1986
     98  NE2       -3.1420   57.2470   31.3390 N.ar  133  HIS133     -0.2212
     99  N         -0.4310   63.6810   30.5720 N.3   178  HIS178     -0.1241
    100  CA        -0.8180   63.4810   29.1810 C.3   178  HIS178      0.1621
    101  C          0.0390   64.4910   28.4210 C.2   178  HIS178      0.2264
    102  O         -0.1990   65.6780   28.6620 O.2   178  HIS178     -0.2867
    103  CB        -2.2130   64.0410   28.9650 C.3   178  HIS178      0.0745
    104  CG        -3.2910   63.2160   29.5230 C.ar  178  HIS178      0.0817
    105  ND1       -3.1050   62.4890   30.6750 N.ar  178  HIS178     -0.2268
    106  CD2       -4.5720   63.0290   29.0850 C.ar  178  HIS178      0.1154
    107  CE1       -4.2690   61.8810   30.9220 C.ar  178  HIS178      0.1986
    108  NE2       -5.1760   62.1750   29.9760 N.ar  178  HIS178     -0.2212
    109  N         -2.9710   66.8780   24.1540 N.3   181  CYS181     -0.1235
    110  CA        -4.2630   66.3570   23.8360 C.3   181  CYS181      0.1677
    111  C         -4.8560   65.5710   25.0060 C.2   181  CYS181      0.2270
    112  O         -4.8690   64.3420   25.0200 O.2   181  CYS181     -0.2867
    113  CB        -4.1450   65.5180   22.5440 C.3   181  CYS181      0.0956
    114  SG        -4.5870   66.4400   21.0360 S.3   181  CYS181     -0.0801
    115  N         -7.2460   63.8580   27.4040 N.3   183  ASN183     -0.1240
    116  CA        -8.4290   63.0440   27.3290 C.3   183  ASN183      0.1653
    117  C         -8.8810   62.8700   28.7640 C.2   183  ASN183      0.2266
    118  O         -8.1330   62.4480   29.6440 O.2   183  ASN183     -0.2867
    119  CB        -8.1080   61.6870   26.6770 C.3   183  ASN183      0.1155
    120  CG        -9.2090   60.7010   26.8580 C.2   183  ASN183      0.2627
    121  OD1      -10.3750   61.0750   27.0100 O.2   183  ASN183     -0.2716
    122  ND2       -8.8340   59.4390   26.8520 N.am  183  ASN183     -0.0877
    123  N          1.8890   60.1190   29.4630 N.3   211  ASP211     -0.1239
    124  CA         1.0100   59.3160   28.6430 C.3   211  ASP211      0.1674
    125  C          0.7650   60.0610   27.3280 C.2   211  ASP211      0.2266
    126  O         -0.0830   60.9630   27.2750 O.2   211  ASP211     -0.2867
    127  CB        -0.3360   59.0040   29.2840 C.3   211  ASP211      0.1410
    128  CG        -0.9540   57.8770   28.5500 C.2   211  ASP211      0.3668
    129  OD1       -0.2570   57.0830   27.9420 O.co2 211  ASP211     -0.2456
    130  OD2       -2.2770   57.8330   28.6130 O.co2 211  ASP211     -0.2456
    131  N         -0.3750   59.6780   23.5530 N.3   213  ALA213     -0.1231
    132  CA        -1.0930   58.7990   22.6760 C.3   213  ALA213      0.1694
    133  C         -1.7150   59.4900   21.5060 C.2   213  ALA213      0.2592
    134  O         -2.6230   58.9510   20.8860 O.2   213  ALA213     -0.2718
    135  CB        -2.2120   58.1160   23.4550 C.3   213  ALA213      0.0304
    136  N         -1.2500   60.6730   21.2220 N.am  214  TYR214     -0.1976
    137  CA        -1.8110   61.4550   20.1590 C.3   214  TYR214      0.1639
    138  C         -0.8220   62.4230   19.5900 C.2   214  TYR214      0.2290
    139  O         -1.2750   63.4740   19.1400 O.2   214  TYR214     -0.2864
    140  CB        -2.9120   62.3310   20.7650 C.3   214  TYR214      0.0560
    141  CG        -4.0960   61.5500   21.2430 C.ar  214  TYR214     -0.0198
    142  CD1       -5.1210   61.2180   20.3640 C.ar  214  TYR214     -0.0009
    143  CD2       -4.2370   61.1400   22.5670 C.ar  214  TYR214     -0.0009
    144  CE1       -6.2310   60.4700   20.7570 C.ar  214  TYR214      0.0417
    145  CE2       -5.3590   60.4260   23.0030 C.ar  214  TYR214      0.0417
    146  CZ        -6.3490   60.0780   22.0910 C.ar  214  TYR214      0.1957
    147  OH        -7.4240   59.3580   22.5340 O.3   214  TYR214     -0.2866
    148  N          1.8070   55.5820   22.1540 N.3   243  SER243     -0.1217
    149  CA         0.9830   54.7230   21.3350 C.3   243  SER243      0.1889
    150  C          0.8720   55.2720   19.9040 C.2   243  SER243      0.2288
    151  O          0.7290   56.4930   19.6940 O.2   243  SER243     -0.2866
    152  CB        -0.3880   54.4850   21.9500 C.3   243  SER243      0.2089
    153  OG        -1.3970   54.6020   20.9830 O.3   243  SER243     -0.2183
    154  N         -1.4960   54.0090   17.8310 N.3   245  SER245     -0.1202
    155  CA        -2.8810   53.7350   17.4800 C.3   245  SER245      0.2020
    156  C         -3.6610   54.8240   16.7910 C.2   245  SER245      0.2618
    157  O         -4.6480   54.5800   16.0970 O.2   245  SER245     -0.2717
    158  CB        -3.6970   53.3140   18.6970 C.3   245  SER245      0.2103
    159  OG        -3.4790   51.9470   18.9910 O.3   245  SER245     -0.2182
    160  N         -3.3210   56.0500   17.0390 N.am  246  LYS246     -0.1979
    161  CA        -4.1330   57.0760   16.4410 C.3   246  LYS246      0.1596
    162  C         -3.4640   57.8310   15.3540 C.2   246  LYS246      0.2287
    163  O         -4.1020   58.1970   14.3950 O.2   246  LYS246     -0.2864
    164  CB        -4.6630   58.0120   17.4880 C.3   246  LYS246      0.0298
    165  CG        -5.9870   57.4930   17.9950 C.3   246  LYS246      0.0038
    166  CD        -6.0540   57.4700   19.5100 C.3   246  LYS246      0.0206
    167  CE        -6.9850   56.3860   20.0180 C.3   246  LYS246      0.1093
    168  NZ        -6.2090   55.2640   20.5170 N.3   246  LYS246     -0.1314
    169  N         -5.1200   51.0210   15.2410 N.3   251  TYR251     -0.1241
    170  CA        -5.8840   50.5940   16.3970 C.3   251  TYR251      0.1605
    171  C         -5.8720   49.1430   16.7720 C.2   251  TYR251      0.2264
    172  O         -5.6880   48.8180   17.9400 O.2   251  TYR251     -0.2867
    173  CB        -7.3230   51.0370   16.4020 C.3   251  TYR251      0.0534
    174  CG        -7.5350   52.4230   15.9130 C.ar  251  TYR251     -0.0201
    175  CD1       -7.3360   53.5310   16.7370 C.ar  251  TYR251     -0.0009
    176  CD2       -8.0020   52.6220   14.6140 C.ar  251  TYR251     -0.0009
    177  CE1       -7.5830   54.8220   16.2690 C.ar  251  TYR251      0.0417
    178  CE2       -8.2710   53.9030   14.1330 C.ar  251  TYR251      0.0417
    179  CZ        -8.0610   55.0040   14.9650 C.ar  251  TYR251      0.1957
    180  OH        -8.3380   56.2670   14.4700 O.3   251  TYR251     -0.2866
    181  N         -2.1810   46.7860   17.9670 N.3   254  ARG254     -0.1245
    182  CA        -1.5890   47.1530   19.2260 C.3   254  ARG254      0.1563
    183  C         -0.1760   47.5400   19.0630 C.2   254  ARG254      0.2260
    184  O          0.6740   46.6820   19.1380 O.2   254  ARG254     -0.2867
    185  CB        -1.6900   45.9690   20.1550 C.3   254  ARG254      0.0307
    186  CG        -3.0150   45.2180   19.9330 C.3   254  ARG254      0.0489
    187  CD        -4.2250   46.0980   20.2300 C.3   254  ARG254      0.2205
    188  NE        -4.0870   46.6300   21.5720 N.pl3 254  ARG254     -0.0865
    189  CZ        -4.2380   47.8870   21.9720 C.cat 254  ARG254      0.5346
    190  NH1       -4.5770   48.8600   21.1560 N.pl3 254  ARG254      0.1354
    191  NH2       -4.0200   48.1730   23.2560 N.pl3 254  ARG254      0.1354
    192  N        -11.4110   64.8590   20.8430 N.3   348  PHE348     -0.1241
    193  CA       -12.6040   65.0600   21.6620 C.3   348  PHE348      0.1605
    194  C        -12.9330   66.4210   22.1560 C.2   348  PHE348      0.2264
    195  O        -12.1540   67.3710   22.1310 O.2   348  PHE348     -0.2867
    196  CB       -12.6470   64.2710   22.9670 C.3   348  PHE348      0.0534
    197  CG       -12.1020   62.9020   22.8770 C.ar  348  PHE348     -0.0203
    198  CD1      -12.8640   61.8730   22.3390 C.ar  348  PHE348     -0.0042
    199  CD2      -10.8380   62.6240   23.3770 C.ar  348  PHE348     -0.0042
    200  CE1      -12.3680   60.5760   22.2710 C.ar  348  PHE348     -0.0003
    201  CE2      -10.3190   61.3340   23.3000 C.ar  348  PHE348     -0.0003
    202  CZ       -11.0880   60.3130   22.7460 C.ar  348  PHE348     -0.0000
    203  N        -18.3150   63.2790   26.9530 N.3   374  ARG374     -0.1245
    204  CA       -17.1780   63.3500   26.0550 C.3   374  ARG374      0.1563
    205  C        -17.6280   62.8470   24.7010 C.2   374  ARG374      0.2260
    206  O        -18.1910   61.7410   24.5620 O.2   374  ARG374     -0.2867
    207  CB       -16.0000   62.5330   26.5630 C.3   374  ARG374      0.0307
    208  CG       -14.8060   62.5880   25.6340 C.3   374  ARG374      0.0489
    209  CD       -13.8490   61.4200   25.8320 C.3   374  ARG374      0.2205
    210  NE       -14.3520   60.1920   25.2380 N.pl3 374  ARG374     -0.0865
    211  CZ       -13.5840   59.1190   25.0480 C.cat 374  ARG374      0.5346
    212  NH1      -12.2960   59.1800   25.4570 N.pl3 374  ARG374      0.1354
    213  NH2      -14.0730   57.9910   24.4890 N.pl3 374  ARG374      0.1354
@<TRIPOS>BOND
     1   178   176   ar
     2   178   179   ar
     3   163   162    2
     4   180   179    1
     5   176   174   ar
     6   179   177   ar
     7   169   170    1
     8   162   161    1
     9    39    40    2
    10    39    38    1
    11   174   173    1
    12   174   175   ar
    13    41    42    1
    14    41    38    1
    15   157   156    2
    16   177   175   ar
    17    42    44    1
    18    42    43    1
    19    38    37    1
    20   170   173    1
    21   170   171    1
    22   161   160    1
    23   161   164    1
    24   171   172    2
    25   156   160   am
    26   156   155    1
    27   155   154    1
    28   155   158    1
    29   164   165    1
    30    37    35   am
    31   181   182    1
    32   165   166    1
    33   158   159    1
    34    35    36    2
    35    35    34    1
    36   183   184    2
    37   183   182    1
    38   139   138    2
    39    28    27    2
    40   182   185    1
    41   166   167    1
    42   138   137    1
    43   151   150    2
    44   150   149    1
    45   186   185    1
    46   186   187    1
    47    34    33    1
    48   167   168    1
    49   137   140    1
    50   137   136    1
    51   187   188    1
    52    27    33   am
    53    27    26    1
    54   142   144   ar
    55   142   141   ar
    56    31    29    1
    57    30    29    1
    58    30    32    1
    59   144   146   ar
    60   140   141    1
    61   192   193    1
    62   134   133    2
    63   153   152    1
    64   114   113    1
    65   190   189    1
    66    29    26    1
    67   136   133   am
    68   141   143   ar
    69    26    25    1
    70   149   152    1
    71   149   148    1
    72   133   132    1
    73   188   189    2
    74   193   194    1
    75   193   196    1
    76   189   191    1
    77   146   147    1
    78   146   145   ar
    79   195   194    2
    80   200   198   ar
    81   200   202   ar
    82   198   197   ar
    83    45    46    1
    84   113   110    1
    85   143   145   ar
    86    46    47    1
    87   132   135    1
    88   132   131    1
    89   202   201   ar
    90   197   196    1
    91   197   199   ar
    92   201   199   ar
    93    24    22    1
    94    47    49   am
    95    47    48    2
    96   110   109    1
    97   110   111    1
    98    49    50    1
    99    20    19    2
   100    22    21    1
   101    22    23    1
   102   213   211    1
   103   206   205    2
   104   205   204    1
   105    18    19    1
   106    18    21    1
   107    18    17    1
   108    12    11    2
   109    15    13    1
   110    50    51    1
   111   111   112    2
   112   211   210    2
   113   211   212    1
   114   210   209    1
   115   208   209    1
   116   208   207    1
   117    11    17   am
   118    11    10    1
   119   204   207    1
   120   204   203    1
   121    53    51   am
   122    53    54    1
   123    51    52    2
   124    13    10    1
   125    13    14    1
   126    58    57    1
   127    10     9    1
   128   119   120    1
   129   119   116    1
   130   122   120   am
   131   120   121    2
   132    57    54    1
   133    14    16    1
   134   126   125    2
   135    54    55    1
   136   125   124    1
   137   116   115    1
   138   116   117    1
   139    55    56    2
   140   129   128   ar
   141    75    76   ar
   142    75    73   ar
   143    78    76   ar
   144    78    80   ar
   145   101   102    2
   146   101   100    1
   147    76    74   ar
   148    73    72   ar
   149   128   130   ar
   150   128   127    1
   151     7     6   ar
   152   124   127    1
   153   124   123    1
   154    80    79   ar
   155   117   118    2
   156     8     6   ar
   157     6     5    1
   158   103   100    1
   159   103   104    1
   160   106   104   ar
   161   106   108   ar
   162     5     2    1
   163    74    72   ar
   164    74    77   ar
   165   100    99    1
   166    72    71    1
   167     4     3    2
   168    79    77   ar
   169   104   105   ar
   170    59    60    1
   171    71    68    1
   172     3     2    1
   173   108   107   ar
   174    65    64    1
   175    64    63    1
   176    64    66    1
   177     2     1    1
   178   105   107   ar
   179    88    86   am
   180    87    86    2
   181    86    85    1
   182    63    60    1
   183    60    61    1
   184    68    67    1
   185    68    69    1
   186    85    82    1
   187    98    97   ar
   188    98    96   ar
   189    97    95   ar
   190    61    62    2
   191    69    70    2
   192    95    94   ar
   193    96    94   ar
   194    81    82    1
   195    82    83    1
   196    94    93    1
   197    83    89   am
   198    83    84    2
   199    89    90    1
   200    93    90    1
   201    90    91    1
   202    91    92    2
