@<TRIPOS>MOLECULE
tmp/1ahtB01.pdb
 174 175 0 0 0
SMALL
GASTEIGER

@<TRIPOS>ATOM
      1  N         14.1650   -7.9120    9.3320 N.3    27  LEU27      -0.1231
      2  CA        15.2090   -8.3870   10.2380 C.3    27  LEU27       0.1693
      3  C         14.8520   -8.0350   11.6830 C.2    27  LEU27       0.2592
      4  O         14.7120   -8.9070   12.5390 O.2    27  LEU27      -0.2718
      5  CB        16.5490   -7.7480    9.8930 C.3    27  LEU27       0.0284
      6  CG        17.1670   -8.1490    8.5550 C.3    27  LEU27       0.0019
      7  CD1       18.5550   -7.5310    8.4720 C.3    27  LEU27       0.0001
      8  CD2       17.2360   -9.6800    8.4270 C.3    27  LEU27       0.0001
      9  N         14.6050   -6.7480   11.9200 N.am   28  CYS28      -0.1970
     10  CA        14.3210   -6.2470   13.2640 C.3    28  CYS28       0.1712
     11  C         13.6130   -4.8930   13.2500 C.2    28  CYS28       0.2296
     12  O         13.4340   -4.2750   12.1980 O.2    28  CYS28      -0.2864
     13  CB        15.6680   -6.0150   13.9530 C.3    28  CYS28       0.0983
     14  SG        16.4750   -7.4150   14.8270 S.3    28  CYS28      -0.0798
     15  N         22.4610   -7.0450   18.5160 N.3    43  HIS43      -0.1241
     16  CA        22.3160   -8.4330   18.0910 C.3    43  HIS43       0.1621
     17  C         21.5890   -8.5950   16.7690 C.2    43  HIS43       0.2264
     18  O         21.6560   -9.6450   16.1420 O.2    43  HIS43      -0.2867
     19  CB        21.6730   -9.2720   19.1910 C.3    43  HIS43       0.0745
     20  CG        20.1800   -9.2650   19.1700 C.ar   43  HIS43       0.0817
     21  ND1       19.4300   -8.5520   20.0740 N.ar   43  HIS43      -0.2268
     22  CD2       19.2950   -9.9550   18.4110 C.ar   43  HIS43       0.1154
     23  CE1       18.1440   -8.7980   19.8800 C.ar   43  HIS43       0.1986
     24  NE2       18.0390   -9.6460   18.8770 N.ar   43  HIS43      -0.2212
     25  N         25.5590  -17.3920   15.2950 N.3    50  TRP50      -0.1241
     26  CA        24.6740  -17.7170   14.1800 C.3    50  TRP50       0.1605
     27  C         25.2590  -17.1190   12.9040 C.2    50  TRP50       0.2264
     28  O         24.5390  -16.8890   11.9380 O.2    50  TRP50      -0.2867
     29  CB        23.2670  -17.1480   14.4170 C.3    50  TRP50       0.0550
     30  CG        22.5260  -17.7350   15.5960 C.ar   50  TRP50       0.0003
     31  CD1       22.9400  -18.7420   16.4180 C.ar   50  TRP50       0.0946
     32  CD2       21.2610  -17.2920   16.1120 C.ar   50  TRP50       0.0152
     33  NE1       22.0170  -18.9500   17.4210 N.ar   50  TRP50      -0.2442
     34  CE2       20.9780  -18.0720   17.2590 C.ar   50  TRP50       0.0810
     35  CE3       20.3430  -16.3120   15.7200 C.ar   50  TRP50       0.0012
     36  CZ2       19.8200  -17.8960   18.0160 C.ar   50  TRP50       0.0191
     37  CZ3       19.1820  -16.1360   16.4780 C.ar   50  TRP50       0.0001
     38  CH2       18.9330  -16.9290   17.6180 C.ar   50  TRP50       0.0015
     39  N         25.9250  -14.2490   12.0190 N.3    52  LYS52      -0.1245
     40  CA        25.3010  -13.0110   11.5770 C.3    52  LYS52       0.1561
     41  C         26.2250  -11.8140   11.7790 C.2    52  LYS52       0.2260
     42  O         26.7060  -11.5720   12.8800 O.2    52  LYS52      -0.2867
     43  CB        24.0080  -12.7860   12.3380 C.3    52  LYS52       0.0271
     44  CG        23.3640  -11.4410   12.0600 C.3    52  LYS52       0.0035
     45  CD        22.3150  -11.0970   13.1110 C.3    52  LYS52       0.0206
     46  CE        21.1480  -12.0450   13.1020 C.3    52  LYS52       0.1093
     47  NZ        20.2070  -11.6480   14.1800 N.3    52  LYS52      -0.1314
     48  N          3.7940   -9.7950   25.2020 N.3   192  ASP192     -0.1225
     49  CA         5.2590   -9.7810   25.1560 C.3   192  ASP192      0.1805
     50  C          5.7210   -9.5480   23.7010 C.2   192  ASP192      0.2598
     51  O          4.9230   -9.5940   22.7450 O.2   192  ASP192     -0.2718
     52  CB         5.7550  -11.1720   25.6880 C.3   192  ASP192      0.1424
     53  CG         7.2900  -11.3130   25.7790 C.2   192  ASP192      0.3668
     54  OD1        8.0520  -10.3280   25.8860 O.co2 192  ASP192     -0.2456
     55  OD2        7.7470  -12.4860   25.7790 O.co2 192  ASP192     -0.2456
     56  N          6.9970   -9.2270   23.5470 N.am  193  ALA193     -0.1966
     57  CA         7.6020   -9.0680   22.2430 C.3   193  ALA193      0.1728
     58  C          7.9270  -10.4930   21.8000 C.2   193  ALA193      0.2616
     59  O          7.8130  -11.4320   22.5930 O.2   193  ALA193     -0.2715
     60  CB         8.8910   -8.2450   22.3490 C.3   193  ALA193      0.0334
     61  N          8.3490  -10.6600   20.5570 N.am  194  CYS194     -0.1954
     62  CA         8.6860  -11.9880   20.0460 C.3   194  CYS194      0.1843
     63  C          9.6930  -11.8160   18.9190 C.2   194  CYS194      0.2625
     64  O         10.1910  -10.7050   18.7400 O.2   194  CYS194     -0.2714
     65  CB         7.4160  -12.6980   19.5620 C.3   194  CYS194      0.0997
     66  SG         7.5620  -14.5160   19.4580 S.3   194  CYS194     -0.0797
     67  N          9.9850  -12.8760   18.1550 N.am  195  GLU195     -0.1963
     68  CA        10.9620  -12.7810   17.0660 C.3   195  GLU195      0.1733
     69  C         10.5400  -11.6880   16.1070 C.2   195  GLU195      0.2616
     70  O          9.3570  -11.5550   15.8100 O.2   195  GLU195     -0.2715
     71  CB        11.0250  -14.0750   16.2490 C.3   195  GLU195      0.0429
     72  CG        11.1650  -15.3310   17.0500 C.3   195  GLU195      0.1163
     73  CD        12.4300  -15.3400   17.8830 C.2   195  GLU195      0.3649
     74  OE1       13.5210  -15.0820   17.3070 O.co2 195  GLU195     -0.2457
     75  OE2       12.3280  -15.6140   19.1070 O.co2 195  GLU195     -0.2457
     76  N         11.4970  -10.9310   15.5940 N.am  196  GLY196     -0.1955
     77  CA        11.1630   -9.8770   14.6590 C.3   196  GLY196      0.1869
     78  C         10.9480   -8.5530   15.3460 C.2   196  GLY196      0.2309
     79  O         11.1330   -7.5370   14.7170 O.2   196  GLY196     -0.2863
     80  N         12.6820   -7.5720   18.0760 N.3   198  SER198     -0.1217
     81  CA        13.9870   -7.1620   18.6000 C.3   198  SER198      0.1889
     82  C         14.4840   -5.8810   17.9420 C.2   198  SER198      0.2288
     83  O         14.2960   -5.6830   16.7490 O.2   198  SER198     -0.2866
     84  CB        15.0230   -8.2900   18.4170 C.3   198  SER198      0.2089
     85  OG        14.9110   -9.5640   19.1540 O.3   198  SER198     -0.2183
     86  N         14.0370   -3.6270   22.7220 N.3   218  VAL218     -0.1231
     87  CA        13.6820   -5.0450   22.7840 C.3   218  VAL218      0.1692
     88  C         14.9790   -5.8390   22.5720 C.2   218  VAL218      0.2593
     89  O         15.6110   -5.7910   21.5070 O.2   218  VAL218     -0.2718
     90  CB        12.6180   -5.4050   21.6980 C.3   218  VAL218      0.0266
     91  CG1       12.3060   -6.9260   21.7340 C.3   218  VAL218      0.0020
     92  CG2       11.3420   -4.5810   21.9230 C.3   218  VAL218      0.0020
     93  N         15.3730   -6.5860   23.5940 N.am  219  SER219     -0.1938
     94  CA        16.6350   -7.3050   23.5220 C.3   219  SER219      0.2055
     95  C         16.5720   -8.8120   23.4260 C.2   219  SER219      0.2643
     96  O         17.0700   -9.3920   22.4640 O.2   219  SER219     -0.2714
     97  CB        17.5180   -6.9110   24.7290 C.3   219  SER219      0.2130
     98  OG        18.8050   -7.4960   24.6210 O.3   219  SER219     -0.2179
     99  N         16.0050   -9.4460   24.4400 N.am  220  TRP220     -0.1959
    100  CA        15.9190  -10.8940   24.4400 C.3   220  TRP220      0.1771
    101  C         14.8500  -11.4110   25.3670 C.2   220  TRP220      0.2620
    102  O         14.2650  -10.6690   26.1630 O.2   220  TRP220     -0.2715
    103  CB        17.2850  -11.5390   24.7890 C.3   220  TRP220      0.0590
    104  CG        17.8180  -11.2120   26.1720 C.ar  220  TRP220      0.0006
    105  CD1       18.5380  -10.1150   26.5300 C.ar  220  TRP220      0.0946
    106  CD2       17.6690  -12.0060   27.3700 C.ar  220  TRP220      0.0152
    107  NE1       18.8500  -10.1690   27.8730 N.ar  220  TRP220     -0.2442
    108  CE2       18.3290  -11.3210   28.4130 C.ar  220  TRP220      0.0810
    109  CE3       17.0470  -13.2320   27.6590 C.ar  220  TRP220      0.0012
    110  CZ2       18.3850  -11.8180   29.7200 C.ar  220  TRP220      0.0191
    111  CZ3       17.1040  -13.7260   28.9660 C.ar  220  TRP220      0.0001
    112  CH2       17.7700  -13.0110   29.9790 C.ar  220  TRP220      0.0015
    113  N         14.5900  -12.7040   25.2390 N.am  221  GLY221     -0.1940
    114  CA        13.6120  -13.3610   26.0680 C.3   221  GLY221      0.2014
    115  C         13.6850  -14.8320   25.7700 C.2   221  GLY221      0.2639
    116  O         14.3040  -15.2330   24.7880 O.2   221  GLY221     -0.2714
    117  N         13.0720  -15.6300   26.6230 N.am  222  GLU222     -0.1963
    118  CA        13.0750  -17.0760   26.4580 C.3   222  GLU222      0.1733
    119  C         11.6760  -17.4720   25.9900 C.2   222  GLU222      0.2617
    120  O         10.7230  -17.5360   26.7750 O.2   222  GLU222     -0.2715
    121  CB        13.5000  -17.7220   27.7790 C.3   222  GLU222      0.0429
    122  CG        14.8950  -17.2200   28.2290 C.3   222  GLU222      0.1163
    123  CD        15.1580  -17.3740   29.7270 C.2   222  GLU222      0.3649
    124  OE1       14.4750  -16.7050   30.5390 O.co2 222  GLU222     -0.2457
    125  OE2       16.0620  -18.1530   30.0850 O.co2 222  GLU222     -0.2457
    126  N         11.5650  -17.7040   24.6850 N.am  223  GLY223     -0.1940
    127  CA        10.2710  -18.0010   24.0970 C.3   223  GLY223      0.2014
    128  C          9.5530  -16.6610   23.9780 C.2   223  GLY223      0.2639
    129  O         10.2060  -15.6060   23.9290 O.2   223  GLY223     -0.2714
    130  N          8.2280  -16.6840   23.9130 N.am  224  CYS224     -0.1967
    131  CA         7.4390  -15.4540   23.8250 C.3   224  CYS224      0.1712
    132  C          6.1760  -15.6640   24.6240 C.2   224  CYS224      0.2296
    133  O          5.4730  -16.6680   24.4470 O.2   224  CYS224     -0.2864
    134  CB         7.0480  -15.1300   22.3860 C.3   224  CYS224      0.0983
    135  SG         8.4330  -15.0600   21.2310 S.3   224  CYS224     -0.0798
    136  N          9.8650  -13.2900   31.3380 N.3   230  TYR230     -0.1227
    137  CA         9.6730  -11.8670   31.0860 C.3   230  TYR230      0.1736
    138  C         10.5520  -11.4260   29.9590 C.2   230  TYR230      0.2596
    139  O         11.5550  -12.0710   29.6500 O.2   230  TYR230     -0.2718
    140  CB        10.0170  -11.0430   32.3410 C.3   230  TYR230      0.0548
    141  CG         9.2080  -11.4470   33.5480 C.ar  230  TYR230     -0.0200
    142  CD1        9.6210  -12.4960   34.3930 C.ar  230  TYR230     -0.0009
    143  CD2        7.9840  -10.8460   33.7990 C.ar  230  TYR230     -0.0009
    144  CE1        8.8140  -12.9300   35.4350 C.ar  230  TYR230      0.0417
    145  CE2        7.1780  -11.2660   34.8350 C.ar  230  TYR230      0.0417
    146  CZ         7.5880  -12.3110   35.6450 C.ar  230  TYR230      0.1957
    147  OH         6.7130  -12.7260   36.6190 O.3   230  TYR230     -0.2866
    148  N         10.1670  -10.3180   29.3360 N.am  231  GLY231     -0.1942
    149  CA        10.9520   -9.7740   28.2510 C.3   231  GLY231      0.2014
    150  C         12.0820   -8.9440   28.8090 C.2   231  GLY231      0.2639
    151  O         11.8870   -8.2960   29.8310 O.2   231  GLY231     -0.2714
    152  N         13.2620   -9.0230   28.1920 N.am  232  PHE232     -0.1959
    153  CA        14.4120   -8.2360   28.6250 C.3   232  PHE232      0.1771
    154  C         14.7020   -7.1320   27.6460 C.2   232  PHE232      0.2619
    155  O         14.6850   -7.3510   26.4150 O.2   232  PHE232     -0.2715
    156  CB        15.6530   -9.1010   28.8810 C.3   232  PHE232      0.0574
    157  CG        15.5690   -9.8500   30.1650 C.ar  232  PHE232     -0.0200
    158  CD1       14.8050  -11.0110   30.2490 C.ar  232  PHE232     -0.0042
    159  CD2       16.1600   -9.3460   31.3170 C.ar  232  PHE232     -0.0042
    160  CE1       14.6170  -11.6650   31.4740 C.ar  232  PHE232     -0.0003
    161  CE2       15.9880   -9.9790   32.5400 C.ar  232  PHE232     -0.0003
    162  CZ        15.2160  -11.1450   32.6210 C.ar  232  PHE232     -0.0000
    163  N         15.0100   -5.9560   28.1950 N.am  233  TYR233     -0.1974
    164  CA        15.2460   -4.7580   27.4030 C.3   233  TYR233      0.1639
    165  C         16.5320   -4.0530   27.7600 C.2   233  TYR233      0.2290
    166  O         16.8990   -3.9780   28.9260 O.2   233  TYR233     -0.2864
    167  CB        14.0750   -3.7700   27.6270 C.3   233  TYR233      0.0560
    168  CG        12.7080   -4.3200   27.2580 C.ar  233  TYR233     -0.0198
    169  CD1       11.9570   -5.0830   28.1690 C.ar  233  TYR233     -0.0009
    170  CD2       12.2010   -4.1470   25.9730 C.ar  233  TYR233     -0.0009
    171  CE1       10.7470   -5.6700   27.8020 C.ar  233  TYR233      0.0417
    172  CE2       10.9910   -4.7240   25.5930 C.ar  233  TYR233      0.0417
    173  CZ        10.2760   -5.4910   26.5000 C.ar  233  TYR233      0.1957
    174  OH         9.1400   -6.1350   26.0630 O.3   233  TYR233     -0.2866
@<TRIPOS>BOND
     1     8     6    1
     2     7     6    1
     3     6     5    1
     4     1     2    1
     5     5     2    1
     6     2     3    1
     7    40    41    1
     8    40    39    1
     9    40    43    1
    10     3     9   am
    11     3     4    2
    12    41    42    2
    13     9    10    1
    14    28    27    2
    15    44    43    1
    16    44    45    1
    17    12    11    2
    18    27    26    1
    19    46    45    1
    20    46    47    1
    21    11    10    1
    22    10    13    1
    23    13    14    1
    24    26    29    1
    25    26    25    1
    26    29    30    1
    27    77    78    1
    28    77    76    1
    29    79    78    2
    30    76    69   am
    31    30    32   ar
    32    30    31   ar
    33    35    32   ar
    34    35    37   ar
    35    70    69    2
    36    69    68    1
    37    32    34   ar
    38    18    17    2
    39    71    72    1
    40    71    68    1
    41    31    33   ar
    42    37    38   ar
    43    83    82    2
    44    17    16    1
    45    72    73    1
    46    68    67    1
    47    34    33   ar
    48    34    36   ar
    49    74    73   ar
    50    38    36   ar
    51    73    75   ar
    52    82    81    1
    53    80    81    1
    54    16    15    1
    55    16    19    1
    56    67    63   am
    57    22    24   ar
    58    22    20   ar
    59    84    81    1
    60    84    85    1
    61    64    63    2
    62    24    23   ar
    63    63    62    1
    64    20    19    1
    65    20    21   ar
    66    66    65    1
    67    66   135    1
    68    65    62    1
    69    23    21   ar
    70    62    61    1
    71    61    58   am
    72   135   134    1
    73    89    88    2
    74    90    91    1
    75    90    92    1
    76    90    87    1
    77    58    57    1
    78    58    59    2
    79    57    60    1
    80    57    56    1
    81   134   131    1
    82    96    95    2
    83    88    87    1
    84    88    93   am
    85    86    87    1
    86    51    50    2
    87    95    94    1
    88    95    99   am
    89    94    93    1
    90    94    97    1
    91    56    50   am
    92    50    49    1
    93   131   130    1
    94   131   132    1
    95   130   128   am
    96   129   128    2
    97   128   127    1
    98   127   126    1
    99    99   100    1
   100   100   103    1
   101   100   101    1
   102   133   132    2
   103    98    97    1
   104   126   119   am
   105   116   115    2
   106   103   104    1
   107    49    48    1
   108    49    52    1
   109   113   101   am
   110   113   114    1
   111   101   102    2
   112   172   170   ar
   113   172   173   ar
   114    52    53    1
   115   115   114    1
   116   115   117   am
   117    55    53   ar
   118    53    54   ar
   119   170   168   ar
   120   119   118    1
   121   119   120    2
   122   174   173    1
   123   104   105   ar
   124   104   106   ar
   125   155   154    2
   126   118   117    1
   127   118   121    1
   128   173   171   ar
   129   105   107   ar
   130   168   167    1
   131   168   169   ar
   132   106   109   ar
   133   106   108   ar
   134   164   167    1
   135   164   165    1
   136   164   163    1
   137   154   163   am
   138   154   153    1
   139   109   111   ar
   140   165   166    2
   141   121   122    1
   142   171   169   ar
   143   107   108   ar
   144   152   153    1
   145   152   150   am
   146   122   123    1
   147   149   150    1
   148   149   148    1
   149   108   110   ar
   150   153   156    1
   151   150   151    2
   152   156   157    1
   153   111   112   ar
   154   148   138   am
   155   139   138    2
   156   110   112   ar
   157   123   125   ar
   158   123   124   ar
   159   138   137    1
   160   157   158   ar
   161   157   159   ar
   162   158   160   ar
   163   137   136    1
   164   137   140    1
   165   159   161   ar
   166   160   162   ar
   167   140   141    1
   168   161   162   ar
   169   141   143   ar
   170   141   142   ar
   171   143   145   ar
   172   142   144   ar
   173   145   146   ar
   174   144   146   ar
   175   146   147    1
