@<TRIPOS>MOLECULE
tmp/1ahvA01.pdb
 118 114 0 0 0
SMALL
GASTEIGER

@<TRIPOS>ATOM
      1  N        109.9860   60.8200   73.9270 N.3   103  TYR103     -0.1241
      2  CA       108.9820   61.0170   72.8810 C.3   103  TYR103      0.1605
      3  C        107.6930   61.5300   73.5300 C.2   103  TYR103      0.2264
      4  O        106.6120   61.4970   72.9330 O.2   103  TYR103     -0.2867
      5  CB       108.6680   59.7600   72.0590 C.3   103  TYR103      0.0534
      6  CG       109.7750   59.1990   71.1950 C.ar  103  TYR103     -0.0201
      7  CD1      110.1900   59.8820   70.0600 C.ar  103  TYR103     -0.0009
      8  CD2      110.4090   57.9940   71.5130 C.ar  103  TYR103     -0.0009
      9  CE1      111.2060   59.3820   69.2590 C.ar  103  TYR103      0.0417
     10  CE2      111.4270   57.4780   70.7080 C.ar  103  TYR103      0.0417
     11  CZ       111.8220   58.1800   69.5800 C.ar  103  TYR103      0.1957
     12  OH       112.8270   57.6760   68.7950 O.3   103  TYR103     -0.2866
     13  N        116.4810   48.2270   73.5490 N.3   165  ASP165     -0.1239
     14  CA       117.4380   48.4220   74.6310 C.3   165  ASP165      0.1674
     15  C        116.8960   48.1760   76.0360 C.2   165  ASP165      0.2266
     16  O        117.0790   47.0940   76.5950 O.2   165  ASP165     -0.2867
     17  CB       118.1260   49.7880   74.5250 C.3   165  ASP165      0.1410
     18  CG       119.0440   49.8920   73.3190 C.2   165  ASP165      0.3668
     19  OD1      119.4850   48.8280   72.8350 O.co2 165  ASP165     -0.2456
     20  OD2      119.3450   51.0190   72.8640 O.co2 165  ASP165     -0.2456
     21  N        112.3580   49.9020   66.9830 N.3   180  VAL180     -0.1245
     22  CA       113.3950   48.9540   66.6070 C.3   180  VAL180      0.1561
     23  C        113.8500   48.0300   67.7330 C.2   180  VAL180      0.2260
     24  O        113.7560   48.3850   68.9120 O.2   180  VAL180     -0.2867
     25  CB       114.5820   49.6760   65.9960 C.3   180  VAL180      0.0252
     26  CG1      115.6680   48.6820   65.6360 C.3   180  VAL180      0.0019
     27  CG2      114.0920   50.4000   64.7620 C.3   180  VAL180      0.0019
     28  N        116.9600   44.6190   68.5190 N.3   182  TYR182     -0.1241
     29  CA       118.2140   44.0050   68.0920 C.3   182  TYR182      0.1605
     30  C        118.5080   42.6910   67.3610 C.2   182  TYR182      0.2264
     31  O        119.5360   42.5890   66.6920 O.2   182  TYR182     -0.2867
     32  CB       119.3570   44.5630   68.9380 C.3   182  TYR182      0.0534
     33  CG       119.1100   46.0440   69.1520 C.ar  182  TYR182     -0.0201
     34  CD1      118.3540   46.4890   70.2350 C.ar  182  TYR182     -0.0009
     35  CD2      119.5830   46.9910   68.2600 C.ar  182  TYR182     -0.0009
     36  CE1      118.0990   47.8330   70.4280 C.ar  182  TYR182      0.0417
     37  CE2      119.3360   48.3380   68.4500 C.ar  182  TYR182      0.0417
     38  CZ       118.5950   48.7540   69.5300 C.ar  182  TYR182      0.1957
     39  OH       118.3670   50.1010   69.6930 O.3   182  TYR182     -0.2866
     40  N        122.9960   55.7710   80.8640 N.3   408  TRP408     -0.1241
     41  CA       123.4180   56.8830   80.0300 C.3   408  TRP408      0.1605
     42  C        122.5710   58.1430   80.1780 C.2   408  TRP408      0.2264
     43  O        123.0520   59.2490   79.9300 O.2   408  TRP408     -0.2867
     44  CB       123.7150   56.5190   78.5760 C.3   408  TRP408      0.0550
     45  CG       122.5550   56.1300   77.7260 C.ar  408  TRP408      0.0003
     46  CD1      122.2020   54.8720   77.3410 C.ar  408  TRP408      0.0946
     47  CD2      121.6310   57.0180   77.0880 C.ar  408  TRP408      0.0152
     48  NE1      121.0960   54.9180   76.5270 N.ar  408  TRP408     -0.2442
     49  CE2      120.7240   56.2270   76.3600 C.ar  408  TRP408      0.0810
     50  CE3      121.4680   58.4070   77.0830 C.ar  408  TRP408      0.0012
     51  CZ2      119.6760   56.7780   75.6250 C.ar  408  TRP408      0.0191
     52  CZ3      120.4280   58.9530   76.3530 C.ar  408  TRP408      0.0001
     53  CH2      119.5450   58.1410   75.6340 C.ar  408  TRP408      0.0015
     54  N        114.9870   62.1450   71.8210 N.3   419  PHE419     -0.1241
     55  CA       115.5070   61.5740   70.5990 C.3   419  PHE419      0.1605
     56  C        115.2580   62.2860   69.2870 C.2   419  PHE419      0.2264
     57  O        114.1070   62.5130   68.9120 O.2   419  PHE419     -0.2867
     58  CB       114.9360   60.1730   70.4040 C.3   419  PHE419      0.0534
     59  CG       115.2440   59.2120   71.5170 C.ar  419  PHE419     -0.0203
     60  CD1      116.5230   58.7120   71.6810 C.ar  419  PHE419     -0.0042
     61  CD2      114.2560   58.8060   72.3960 C.ar  419  PHE419     -0.0042
     62  CE1      116.8080   57.8230   72.6960 C.ar  419  PHE419     -0.0003
     63  CE2      114.5340   57.9140   73.4080 C.ar  419  PHE419     -0.0003
     64  CZ       115.8140   57.4230   73.5610 C.ar  419  PHE419     -0.0000
     65  N        121.4040   52.4760   63.7810 N.3   454  THR454     -0.1218
     66  CA       120.8450   51.1500   64.0150 C.3   454  THR454      0.1862
     67  C        120.6340   50.8380   62.5480 C.2   454  THR454      0.2287
     68  O        119.8680   51.4900   61.8400 O.2   454  THR454     -0.2866
     69  CB       119.4960   51.1710   64.7710 C.3   454  THR454      0.1770
     70  OG1      118.5290   51.9110   64.0190 O.3   454  THR454     -0.2211
     71  CG2      119.6480   51.7770   66.1610 C.3   454  THR454      0.0375
     72  N        118.7080   54.1520   60.9780 N.3   461  HIS461     -0.1241
     73  CA       117.9890   55.0980   61.8120 C.3   461  HIS461      0.1621
     74  C        119.1290   55.7750   62.5490 C.2   461  HIS461      0.2264
     75  O        119.8780   55.0960   63.2490 O.2   461  HIS461     -0.2867
     76  CB       117.1190   54.3170   62.8170 C.3   461  HIS461      0.0745
     77  CG       115.8510   53.7710   62.2360 C.ar  461  HIS461      0.0817
     78  ND1      115.7890   53.1630   61.0010 N.ar  461  HIS461     -0.2268
     79  CD2      114.6050   53.6840   62.7630 C.ar  461  HIS461      0.1154
     80  CE1      114.5500   52.7680   60.7720 C.ar  461  HIS461      0.1986
     81  NE2      113.8130   53.0640   61.8280 N.ar  461  HIS461     -0.2212
     82  N        120.0610   57.7280   65.5160 N.3   463  ILE463     -0.1245
     83  CA       119.3970   58.1710   66.7310 C.3   463  ILE463      0.1561
     84  C        120.1680   59.1690   67.6020 C.2   463  ILE463      0.2260
     85  O        120.9900   58.7860   68.4320 O.2   463  ILE463     -0.2867
     86  CB       118.7830   56.9490   67.4410 C.3   463  ILE463      0.0252
     87  CG1      117.7940   56.2870   66.4700 C.3   463  ILE463      0.0019
     88  CG2      118.1450   57.3470   68.7670 C.3   463  ILE463      0.0019
     89  CD1      117.1850   55.0290   66.9310 C.3   463  ILE463      0.0001
     90  N        120.9310   61.2710   70.6110 N.3   465  CYS465     -0.1235
     91  CA       120.5180   61.3170   72.0050 C.3   465  CYS465      0.1677
     92  C        120.7100   62.6570   72.6880 C.2   465  CYS465      0.2270
     93  O        121.8110   62.9730   73.1310 O.2   465  CYS465     -0.2867
     94  CB       121.2600   60.2330   72.7680 C.3   465  CYS465      0.0956
     95  SG       120.9960   58.6060   71.9940 S.3   465  CYS465     -0.0801
     96  N        111.6900   59.2030   61.5740 N.3   498  TYR498     -0.1227
     97  CA       110.6750   58.1680   61.6660 C.3   498  TYR498      0.1736
     98  C        109.7380   58.2630   62.8810 C.2   498  TYR498      0.2595
     99  O        108.6760   57.6340   62.9020 O.2   498  TYR498     -0.2718
    100  CB       111.3420   56.8020   61.5660 C.3   498  TYR498      0.0548
    101  CG       111.5400   56.1140   62.8860 C.ar  498  TYR498     -0.0200
    102  CD1      112.4440   56.5540   63.8470 C.ar  498  TYR498     -0.0009
    103  CD2      110.7580   55.0020   63.1640 C.ar  498  TYR498     -0.0009
    104  CE1      112.5560   55.8740   65.0560 C.ar  498  TYR498      0.0417
    105  CE2      110.8650   54.3250   64.3360 C.ar  498  TYR498      0.0417
    106  CZ       111.7670   54.7570   65.2740 C.ar  498  TYR498      0.1957
    107  OH       111.8270   54.0530   66.4510 O.3   498  TYR498     -0.2866
    108  N        110.1330   59.0460   63.8820 N.am  499  ARG499     -0.1980
    109  CA       109.3620   59.2410   65.1110 C.3   499  ARG499      0.1597
    110  C        109.8490   60.4710   65.8540 C.2   499  ARG499      0.2287
    111  O        110.9750   60.9300   65.6570 O.2   499  ARG499     -0.2864
    112  CB       109.5690   58.1040   66.1290 C.3   499  ARG499      0.0334
    113  CG       108.9300   56.7620   65.8700 C.3   499  ARG499      0.0492
    114  CD       109.4040   55.6840   66.8630 C.3   499  ARG499      0.2205
    115  NE       109.0780   55.8130   68.2890 N.pl3 499  ARG499     -0.0865
    116  CZ       109.4020   54.8910   69.2020 C.cat 499  ARG499      0.5346
    117  NH1      110.0510   53.7920   68.8420 N.pl3 499  ARG499      0.1354
    118  NH2      109.0840   55.0340   70.4830 N.pl3 499  ARG499      0.1354
@<TRIPOS>BOND
     1    80    78   ar
     2    80    81   ar
     3    72    73    1
     4    78    77   ar
     5   100    97    1
     6   100   101    1
     7    96    97    1
     8    97    98    1
     9    73    74    1
    10    73    76    1
    11    81    79   ar
    12    68    67    2
    13    77    79   ar
    14    77    76    1
    15    67    66    1
    16    74    75    2
    17    98    99    2
    18    98   108   am
    19   101   103   ar
    20   101   102   ar
    21   103   105   ar
    22    65    66    1
    23   102   104   ar
    24   108   109    1
    25    66    69    1
    26    70    69    1
    27   105   106   ar
    28    27    25    1
    29    69    71    1
    30   104   106   ar
    31   109   110    1
    32   109   112    1
    33   106   107    1
    34    82    83    1
    35    26    25    1
    36   111   110    2
    37   113   112    1
    38   113   114    1
    39    25    22    1
    40    87    89    1
    41    87    86    1
    42    22    21    1
    43    22    23    1
    44    31    30    2
    45    83    86    1
    46    83    84    1
    47   114   115    1
    48    30    29    1
    49    86    88    1
    50    84    85    2
    51    23    24    2
    52    29    28    1
    53    29    32    1
    54    35    37   ar
    55    35    33   ar
    56   115   116    2
    57    37    38   ar
    58    12    11    1
    59   117   116    1
    60    57    56    2
    61    32    33    1
    62    33    34   ar
    63   116   118    1
    64     9    11   ar
    65     9     7   ar
    66    56    55    1
    67    38    39    1
    68    38    36   ar
    69    11    10   ar
    70     7     6   ar
    71    34    36   ar
    72    58    55    1
    73    58    59    1
    74    55    54    1
    75    90    91    1
    76    10     8   ar
    77     6     8   ar
    78     6     5    1
    79    59    60   ar
    80    59    61   ar
    81    60    62   ar
    82    95    94    1
    83    91    92    1
    84    91    94    1
    85     5     2    1
    86    61    63   ar
    87    92    93    2
    88    62    64   ar
    89    19    18   ar
    90    20    18   ar
    91     2     3    1
    92     2     1    1
    93     4     3    2
    94    18    17    1
    95    63    64   ar
    96    13    14    1
    97    17    14    1
    98    14    15    1
    99    51    53   ar
   100    51    49   ar
   101    53    52   ar
   102    15    16    2
   103    52    50   ar
   104    49    48   ar
   105    49    47   ar
   106    48    46   ar
   107    50    47   ar
   108    47    45   ar
   109    46    45   ar
   110    45    44    1
   111    44    41    1
   112    43    42    2
   113    41    42    1
   114    41    40    1
