@<TRIPOS>MOLECULE
tmp/1ahzA01.pdb
 168 159 0 0 0
SMALL
GASTEIGER

@<TRIPOS>ATOM
      1  N        110.0920   60.9090   74.0300 N.3   103  TYR103     -0.1241
      2  CA       109.0940   61.0380   72.9650 C.3   103  TYR103      0.1605
      3  C        107.8090   61.5750   73.6250 C.2   103  TYR103      0.2264
      4  O        106.6890   61.5190   73.0870 O.2   103  TYR103     -0.2867
      5  CB       108.8230   59.7300   72.1920 C.3   103  TYR103      0.0534
      6  CG       109.9210   59.1760   71.2980 C.ar  103  TYR103     -0.0201
      7  CD1      110.3230   59.8730   70.1600 C.ar  103  TYR103     -0.0009
      8  CD2      110.5600   57.9730   71.5830 C.ar  103  TYR103     -0.0009
      9  CE1      111.3280   59.3980   69.3200 C.ar  103  TYR103      0.0417
     10  CE2      111.5570   57.4760   70.7420 C.ar  103  TYR103      0.0417
     11  CZ       111.9390   58.1960   69.6060 C.ar  103  TYR103      0.1957
     12  OH       112.9250   57.7590   68.7360 O.3   103  TYR103     -0.2866
     13  N        114.3090   45.7900   72.4500 N.3   164  PRO164     -0.2102
     14  CA       114.8780   47.1210   72.2860 C.3   164  PRO164      0.1504
     15  C        115.8260   47.1200   73.4850 C.2   164  PRO164      0.2575
     16  O        116.0840   46.0840   74.1010 O.2   164  PRO164     -0.2718
     17  CB       113.6990   48.0690   72.5350 C.3   164  PRO164      0.0282
     18  CG       112.6680   47.2670   73.2430 C.3   164  PRO164      0.0208
     19  CD       113.0950   45.8290   73.2910 C.3   164  PRO164      0.0893
     20  N        116.3540   48.2790   73.8490 N.am  165  ASP165     -0.1974
     21  CA       117.2590   48.2850   74.9840 C.3   165  ASP165      0.1708
     22  C        116.6510   48.0540   76.3640 C.2   165  ASP165      0.2293
     23  O        116.6710   46.9320   76.8880 O.2   165  ASP165     -0.2864
     24  CB       118.0820   49.5590   74.9560 C.3   165  ASP165      0.1436
     25  CG       118.8770   49.6690   73.6640 C.2   165  ASP165      0.3671
     26  OD1      119.8180   48.8680   73.4090 O.co2 165  ASP165     -0.2456
     27  OD2      118.4870   50.5250   72.8450 O.co2 165  ASP165     -0.2456
     28  N        112.5660   49.9000   67.0190 N.3   180  VAL180     -0.1245
     29  CA       113.6890   49.0350   66.6810 C.3   180  VAL180      0.1561
     30  C        114.0880   48.0810   67.7990 C.2   180  VAL180      0.2260
     31  O        114.0090   48.4230   68.9800 O.2   180  VAL180     -0.2867
     32  CB       114.9110   49.8780   66.3630 C.3   180  VAL180      0.0252
     33  CG1      116.0860   48.9880   66.0810 C.3   180  VAL180      0.0019
     34  CG2      114.6090   50.7500   65.1790 C.3   180  VAL180      0.0019
     35  N        117.0840   44.5580   68.5670 N.3   182  TYR182     -0.1241
     36  CA       118.3840   44.0520   68.1560 C.3   182  TYR182      0.1605
     37  C        118.6950   42.7280   67.4360 C.2   182  TYR182      0.2264
     38  O        119.7110   42.6250   66.7450 O.2   182  TYR182     -0.2867
     39  CB       119.4930   44.6930   69.0020 C.3   182  TYR182      0.0534
     40  CG       119.2040   46.1690   69.2000 C.ar  182  TYR182     -0.0201
     41  CD1      119.6040   47.1040   68.2640 C.ar  182  TYR182     -0.0009
     42  CD2      118.4770   46.6170   70.3020 C.ar  182  TYR182     -0.0009
     43  CE1      119.3220   48.4460   68.4220 C.ar  182  TYR182      0.0417
     44  CE2      118.1850   47.9630   70.4680 C.ar  182  TYR182      0.0417
     45  CZ       118.6140   48.8690   69.5170 C.ar  182  TYR182      0.1957
     46  OH       118.3790   50.2180   69.6160 O.3   182  TYR182     -0.2866
     47  N        124.8180   47.9170   65.4610 N.3   305  THR305     -0.1218
     48  CA       124.7390   49.3460   65.6910 C.3   305  THR305      0.1862
     49  C        126.1050   49.8930   65.9910 C.2   305  THR305      0.2287
     50  O        126.9000   49.2850   66.7040 O.2   305  THR305     -0.2866
     51  CB       123.8740   49.7050   66.9120 C.3   305  THR305      0.1770
     52  OG1      124.4750   49.1860   68.1010 O.3   305  THR305     -0.2211
     53  CG2      122.4730   49.1320   66.7740 C.3   305  THR305      0.0375
     54  N        128.1290   52.5550   67.7840 N.3   307  ARG307     -0.1245
     55  CA       127.9430   53.4600   68.9160 C.3   307  ARG307      0.1563
     56  C        129.0260   54.5330   69.1250 C.2   307  ARG307      0.2260
     57  O        130.2310   54.2550   69.0620 O.2   307  ARG307     -0.2867
     58  CB       127.6330   52.6900   70.1910 C.3   307  ARG307      0.0307
     59  CG       126.6230   51.5880   69.9570 C.3   307  ARG307      0.0489
     60  CD       126.3640   50.9550   71.2950 C.3   307  ARG307      0.2205
     61  NE       125.5340   51.8350   72.1070 N.pl3 307  ARG307     -0.0865
     62  CZ       125.4150   51.7570   73.4300 C.cat 307  ARG307      0.5346
     63  NH1      126.1050   50.8600   74.0990 N.pl3 307  ARG307      0.1354
     64  NH2      124.6310   52.5790   74.1100 N.pl3 307  ARG307      0.1354
     65  N        128.4910   57.4870   74.2260 N.3   311  LEU311     -0.1245
     66  CA       127.3720   56.6510   74.6150 C.3   311  LEU311      0.1561
     67  C        127.7970   55.4920   75.4860 C.2   311  LEU311      0.2260
     68  O        127.1340   55.1640   76.4670 O.2   311  LEU311     -0.2867
     69  CB       126.6220   56.1310   73.3940 C.3   311  LEU311      0.0270
     70  CG       125.4250   55.2420   73.7260 C.3   311  LEU311      0.0019
     71  CD1      124.4500   56.0080   74.5900 C.3   311  LEU311      0.0001
     72  CD2      124.7390   54.8030   72.4510 C.3   311  LEU311      0.0001
     73  N        125.1900   44.1970   75.8730 N.3   393  ARG393     -0.1245
     74  CA       124.5050   43.9920   74.6130 C.3   393  ARG393      0.1563
     75  C        124.4460   42.5350   74.2260 C.2   393  ARG393      0.2260
     76  O        123.5760   42.1200   73.4640 O.2   393  ARG393     -0.2867
     77  CB       125.0200   44.9080   73.5210 C.3   393  ARG393      0.0307
     78  CG       125.2330   46.3110   74.0580 C.3   393  ARG393      0.0489
     79  CD       125.1710   47.4350   73.0130 C.3   393  ARG393      0.2205
     80  NE       123.7850   47.8680   72.7650 N.pl3 393  ARG393     -0.0865
     81  CZ       122.9910   47.5590   71.7360 C.cat 393  ARG393      0.5346
     82  NH1      123.4280   46.7910   70.7410 N.pl3 393  ARG393      0.1354
     83  NH2      121.7500   48.0490   71.6930 N.pl3 393  ARG393      0.1354
     84  N        121.2310   50.0720   80.4850 N.3   405  GLU405     -0.1245
     85  CA       121.2930   51.2710   79.6710 C.3   405  GLU405      0.1567
     86  C        120.8080   52.6330   80.1580 C.2   405  GLU405      0.2260
     87  O        121.2880   53.6630   79.6960 O.2   405  GLU405     -0.2867
     88  CB       121.2210   51.0500   78.1520 C.3   405  GLU405      0.0388
     89  CG       122.2260   50.0220   77.6200 C.3   405  GLU405      0.1160
     90  CD       122.5430   50.1500   76.1360 C.2   405  GLU405      0.3649
     91  OE1      122.3360   51.2420   75.5580 O.co2 405  GLU405     -0.2457
     92  OE2      122.9870   49.1310   75.5630 O.co2 405  GLU405     -0.2457
     93  N        123.0370   55.9260   81.0240 N.3   408  TRP408     -0.1241
     94  CA       123.4880   57.0080   80.1710 C.3   408  TRP408      0.1605
     95  C        122.6430   58.2680   80.3360 C.2   408  TRP408      0.2264
     96  O        123.1070   59.3830   80.1000 O.2   408  TRP408     -0.2867
     97  CB       123.7940   56.6160   78.7240 C.3   408  TRP408      0.0550
     98  CG       122.6450   56.2270   77.8680 C.ar  408  TRP408      0.0003
     99  CD1      122.3140   54.9740   77.4490 C.ar  408  TRP408      0.0946
    100  CD2      121.7060   57.1130   77.2570 C.ar  408  TRP408      0.0152
    101  NE1      121.2110   55.0180   76.6370 N.ar  408  TRP408     -0.2442
    102  CE2      120.8150   56.3220   76.5060 C.ar  408  TRP408      0.0810
    103  CE3      121.5110   58.4980   77.2940 C.ar  408  TRP408      0.0012
    104  CZ2      119.7480   56.8720   75.7860 C.ar  408  TRP408      0.0191
    105  CZ3      120.4520   59.0430   76.5740 C.ar  408  TRP408      0.0001
    106  CH2      119.5850   58.2300   75.8310 C.ar  408  TRP408      0.0015
    107  N        115.1040   62.2950   71.9400 N.3   419  PHE419     -0.1241
    108  CA       115.6690   61.7600   70.7270 C.3   419  PHE419      0.1605
    109  C        115.4340   62.4780   69.4050 C.2   419  PHE419      0.2264
    110  O        114.2890   62.7730   69.0460 O.2   419  PHE419     -0.2867
    111  CB       115.1340   60.3610   70.5180 C.3   419  PHE419      0.0534
    112  CG       115.4660   59.3880   71.6120 C.ar  419  PHE419     -0.0203
    113  CD1      116.7800   59.0330   71.8730 C.ar  419  PHE419     -0.0042
    114  CD2      114.4580   58.8110   72.3820 C.ar  419  PHE419     -0.0042
    115  CE1      117.0770   58.1140   72.8800 C.ar  419  PHE419     -0.0003
    116  CE2      114.7380   57.8770   73.3760 C.ar  419  PHE419     -0.0003
    117  CZ       116.0530   57.5340   73.6290 C.ar  419  PHE419     -0.0000
    118  N        123.8390   56.8200   68.1460 N.3   452  THR452     -0.1218
    119  CA       124.1910   55.4740   67.6950 C.3   452  THR452      0.1862
    120  C        123.3940   55.2420   66.4470 C.2   452  THR452      0.2287
    121  O        122.2240   55.6140   66.3950 O.2   452  THR452     -0.2866
    122  CB       123.4770   54.3290   68.4960 C.3   452  THR452      0.1770
    123  OG1      123.6490   54.4900   69.9020 O.3   452  THR452     -0.2211
    124  CG2      124.0400   52.9510   68.1130 C.3   452  THR452      0.0375
    125  N        121.6650   52.5550   63.8840 N.3   454  THR454     -0.1218
    126  CA       121.0900   51.2190   64.0470 C.3   454  THR454      0.1862
    127  C        120.9070   50.8960   62.5790 C.2   454  THR454      0.2287
    128  O        120.1710   51.5350   61.8310 O.2   454  THR454     -0.2866
    129  CB       119.7060   51.1180   64.7760 C.3   454  THR454      0.1770
    130  OG1      118.6950   51.8740   64.1000 O.3   454  THR454     -0.2211
    131  CG2      119.7860   51.5040   66.2470 C.3   454  THR454      0.0375
    132  N        120.2910   57.8530   65.6380 N.3   463  ILE463     -0.1245
    133  CA       119.6140   58.3150   66.8350 C.3   463  ILE463      0.1561
    134  C        120.3610   59.2930   67.7280 C.2   463  ILE463      0.2260
    135  O        121.1340   58.8920   68.5910 O.2   463  ILE463     -0.2867
    136  CB       119.0310   57.1810   67.6100 C.3   463  ILE463      0.0252
    137  CG1      118.0600   56.4550   66.6860 C.3   463  ILE463      0.0019
    138  CG2      118.3950   57.7300   68.8660 C.3   463  ILE463      0.0019
    139  CD1      117.4790   55.2100   67.2890 C.3   463  ILE463      0.0001
    140  N        120.9870   61.3360   70.8010 N.3   465  CYS465     -0.1235
    141  CA       120.4740   61.3380   72.1640 C.3   465  CYS465      0.1677
    142  C        120.6940   62.6720   72.8470 C.2   465  CYS465      0.2270
    143  O        121.7740   62.9370   73.3750 O.2   465  CYS465     -0.2867
    144  CB       121.2560   60.3640   73.0170 C.3   465  CYS465      0.0956
    145  SG       121.1720   58.6550   72.4410 S.3   465  CYS465     -0.0801
    146  N        111.9590   59.2710   61.7260 N.3   498  TYR498     -0.1227
    147  CA       110.9090   58.2760   61.8210 C.3   498  TYR498      0.1736
    148  C        109.9740   58.3460   63.0110 C.2   498  TYR498      0.2595
    149  O        108.9900   57.6030   63.0710 O.2   498  TYR498     -0.2718
    150  CB       111.4810   56.8800   61.6970 C.3   498  TYR498      0.0548
    151  CG       111.7460   56.1920   63.0150 C.ar  498  TYR498     -0.0200
    152  CD1      112.7120   56.6330   63.9170 C.ar  498  TYR498     -0.0009
    153  CD2      110.9650   55.0880   63.3590 C.ar  498  TYR498     -0.0009
    154  CE1      112.8900   55.9450   65.1260 C.ar  498  TYR498      0.0417
    155  CE2      111.1400   54.4120   64.5240 C.ar  498  TYR498      0.0417
    156  CZ       112.0940   54.8370   65.4050 C.ar  498  TYR498      0.1957
    157  OH       112.1670   54.0740   66.5430 O.3   498  TYR498     -0.2866
    158  N        110.2980   59.2130   63.9550 N.am  499  ARG499     -0.1980
    159  CA       109.4790   59.3540   65.1410 C.3   499  ARG499      0.1597
    160  C        109.9840   60.5510   65.9140 C.2   499  ARG499      0.2287
    161  O        111.1440   60.9520   65.7960 O.2   499  ARG499     -0.2864
    162  CB       109.7290   58.2090   66.1390 C.3   499  ARG499      0.0334
    163  CG       109.2570   56.8160   65.8360 C.3   499  ARG499      0.0492
    164  CD       109.6930   55.7800   66.8840 C.3   499  ARG499      0.2205
    165  NE       109.2270   55.8970   68.2640 N.pl3 499  ARG499     -0.0865
    166  CZ       109.4610   54.9440   69.1670 C.cat 499  ARG499      0.5346
    167  NH1      110.1210   53.8590   68.8140 N.pl3 499  ARG499      0.1354
    168  NH2      109.0490   55.0200   70.4210 N.pl3 499  ARG499      0.1354
@<TRIPOS>BOND
     1   150   147    1
     2   150   151    1
     3   146   147    1
     4   147   148    1
     5   128   127    2
     6   127   126    1
     7   148   149    2
     8   148   158   am
     9   151   153   ar
    10   151   152   ar
    11   153   155   ar
    12   125   126    1
    13   152   154   ar
    14   158   159    1
    15   126   129    1
    16   130   129    1
    17   155   156   ar
    18   129   131    1
    19   154   156   ar
    20   159   160    1
    21   159   162    1
    22    34    32    1
    23   156   157    1
    24    47    48    1
    25   132   133    1
    26    48    49    1
    27    48    51    1
    28   161   160    2
    29   163   162    1
    30   163   164    1
    31    49    50    2
    32    33    32    1
    33    32    29    1
    34   121   120    2
    35   120   119    1
    36    29    28    1
    37    29    30    1
    38   137   139    1
    39   137   136    1
    40    38    37    2
    41    53    51    1
    42   133   136    1
    43   133   134    1
    44   164   165    1
    45    51    52    1
    46    37    36    1
    47   136   138    1
    48   119   118    1
    49   119   122    1
    50   134   135    2
    51    54    55    1
    52    30    31    2
    53   124   122    1
    54    36    35    1
    55    36    39    1
    56   165   166    2
    57    41    43   ar
    58    41    40   ar
    59    43    45   ar
    60   122   123    1
    61    12    11    1
    62   167   166    1
    63    55    56    1
    64    55    58    1
    65    39    40    1
    66   110   109    2
    67    57    56    2
    68   166   168    1
    69    40    42   ar
    70     9    11   ar
    71     9     7   ar
    72   109   108    1
    73    45    46    1
    74    45    44   ar
    75    11    10   ar
    76    59    58    1
    77    59    60    1
    78     7     6   ar
    79    42    44   ar
    80   111   108    1
    81   111   112    1
    82   108   107    1
    83    82    81    1
    84    10     8   ar
    85   140   141    1
    86    60    61    1
    87     6     8   ar
    88     6     5    1
    89   112   113   ar
    90   112   114   ar
    91    83    81    1
    92    81    80    2
    93   113   115   ar
    94    61    62    2
    95   141   142    1
    96   141   144    1
    97     5     2    1
    98    14    13    1
    99    14    17    1
   100    14    15    1
   101   114   116   ar
   102   145   144    1
   103    13    19    1
   104    72    70    1
   105    17    18    1
   106    80    79    1
   107    27    25   ar
   108   142   143    2
   109   115   117   ar
   110     2     3    1
   111     2     1    1
   112    79    78    1
   113     4     3    2
   114    18    19    1
   115   116   117   ar
   116    69    70    1
   117    69    66    1
   118    26    25   ar
   119    62    63    1
   120    62    64    1
   121    76    75    2
   122    15    20   am
   123    15    16    2
   124    77    78    1
   125    77    74    1
   126    25    24    1
   127    70    71    1
   128    20    21    1
   129    65    66    1
   130    75    74    1
   131    74    73    1
   132    66    67    1
   133    24    21    1
   134    21    22    1
   135    67    68    2
   136    91    90   ar
   137    92    90   ar
   138   104   106   ar
   139   104   102   ar
   140   106   105   ar
   141    90    89    1
   142    22    23    2
   143   102   101   ar
   144   102   100   ar
   145   105   103   ar
   146   101    99   ar
   147   100   103   ar
   148   100    98   ar
   149    99    98   ar
   150    89    88    1
   151    98    97    1
   152    88    85    1
   153    97    94    1
   154    85    86    1
   155    85    84    1
   156    87    86    2
   157    96    95    2
   158    94    95    1
   159    94    93    1
