@<TRIPOS>MOLECULE
tmp/1ai4B00.pdb
 110 108 0 0 0
SMALL
GASTEIGER

@<TRIPOS>ATOM
      1  N         13.9550   42.1820   34.3580 N.3     1  SER1       -0.1217
      2  CA        13.3040   42.0420   33.0440 C.3     1  SER1        0.1889
      3  C         12.3860   43.2030   32.7610 C.2     1  SER1        0.2288
      4  O         11.5520   43.4950   33.6160 O.2     1  SER1       -0.2866
      5  CB        12.3500   40.8100   33.0430 C.3     1  SER1        0.2089
      6  OG        13.0380   39.6160   33.2470 O.3     1  SER1       -0.2183
      7  N         13.5200   40.3610   28.6910 N.3    22  PRO22      -0.2102
      8  CA        13.6010   39.4380   29.8140 C.3    22  PRO22       0.1504
      9  C         15.0590   39.3480   30.2660 C.2    22  PRO22       0.2576
     10  O         15.9290   39.3050   29.4050 O.2    22  PRO22      -0.2718
     11  CB        13.1180   38.0730   29.2680 C.3    22  PRO22       0.0282
     12  CG        13.5510   38.2410   27.8010 C.3    22  PRO22       0.0208
     13  CD        13.1510   39.6540   27.4400 C.3    22  PRO22       0.0893
     14  N         15.3650   39.3910   31.5510 N.am   23  GLN23      -0.1966
     15  CA        16.7490   39.4620   31.9890 C.3    23  GLN23       0.1733
     16  C         17.1220   38.2660   32.8470 C.2    23  GLN23       0.2616
     17  O         16.8490   38.2640   34.0360 O.2    23  GLN23      -0.2715
     18  CB        17.0400   40.8060   32.6940 C.3    23  GLN23       0.0408
     19  CG        16.8480   42.0570   31.8170 C.3    23  GLN23       0.0908
     20  CD        17.1520   43.3440   32.6060 C.2    23  GLN23       0.2608
     21  OE1       16.2520   43.7480   33.3450 O.2    23  GLN23      -0.2717
     22  NE2       18.3720   43.9070   32.4500 N.am   23  GLN23      -0.0878
     23  N         17.8840   37.3370   32.3030 N.am   24  PHE24      -0.1974
     24  CA        18.2130   36.0990   33.0290 C.3    24  PHE24       0.1639
     25  C         19.6930   35.9440   33.1890 C.2    24  PHE24       0.2290
     26  O         20.1450   34.9160   33.6990 O.2    24  PHE24      -0.2864
     27  CB        17.7840   34.8890   32.1620 C.3    24  PHE24       0.0560
     28  CG        16.3420   34.7670   31.8230 C.ar   24  PHE24      -0.0200
     29  CD1       15.4660   34.2180   32.7700 C.ar   24  PHE24      -0.0042
     30  CD2       15.8480   35.1240   30.5840 C.ar   24  PHE24      -0.0042
     31  CE1       14.1220   34.0420   32.4740 C.ar   24  PHE24      -0.0003
     32  CE2       14.4940   34.9320   30.2900 C.ar   24  PHE24      -0.0003
     33  CZ        13.6220   34.4270   31.2310 C.ar   24  PHE24      -0.0000
     34  N          7.9000   31.4600   25.1660 N.3    56  VAL56      -0.1231
     35  CA         7.6040   32.6020   26.1050 C.3    56  VAL56       0.1692
     36  C          7.5890   33.9120   25.3480 C.2    56  VAL56       0.2592
     37  O          6.9260   34.8870   25.7620 O.2    56  VAL56      -0.2718
     38  CB         8.5560   32.5590   27.3080 C.3    56  VAL56       0.0266
     39  CG1        8.3410   33.6920   28.3340 C.3    56  VAL56       0.0020
     40  CG2        8.3880   31.2010   28.0220 C.3    56  VAL56       0.0020
     41  N          8.2830   34.0960   24.2040 N.am   57  PHE57      -0.1976
     42  CA         8.2600   35.4040   23.5180 C.3    57  PHE57       0.1639
     43  C          7.9590   35.2460   22.0300 C.2    57  PHE57       0.2290
     44  O          8.7820   34.5590   21.3700 O.2    57  PHE57      -0.2864
     45  CB         9.6140   36.1830   23.6740 C.3    57  PHE57       0.0560
     46  CG        10.2730   35.9780   25.0050 C.ar   57  PHE57      -0.0200
     47  CD1        9.7210   36.6260   26.1050 C.ar   57  PHE57      -0.0042
     48  CD2       11.3150   35.1040   25.2430 C.ar   57  PHE57      -0.0042
     49  CE1       10.2070   36.4300   27.3800 C.ar   57  PHE57      -0.0003
     50  CE2       11.8510   34.9340   26.5090 C.ar   57  PHE57      -0.0003
     51  CZ        11.2290   35.5410   27.6090 C.ar   57  PHE57      -0.0000
     52  N          6.6400   38.1350   28.7310 N.3    67  SER67      -0.1202
     53  CA         6.6220   38.0430   30.1870 C.3    67  SER67       0.2020
     54  C          7.6940   38.9200   30.8910 C.2    67  SER67       0.2619
     55  O          8.7250   39.2740   30.2750 O.2    67  SER67      -0.2717
     56  CB         7.0970   36.6020   30.5520 C.3    67  SER67       0.2103
     57  OG         5.9890   35.7040   30.7270 O.3    67  SER67      -0.2182
     58  N          7.5740   39.0960   32.2170 N.am   68  THR68      -0.1938
     59  CA         8.5990   39.5530   33.1320 C.3    68  THR68       0.2028
     60  C          8.3580   38.8220   34.4610 C.2    68  THR68       0.2642
     61  O          7.2290   38.3680   34.6950 O.2    68  THR68      -0.2714
     62  CB         8.6200   41.0760   33.3910 C.3    68  THR68       0.1808
     63  OG1        7.4450   41.5280   34.0930 O.3    68  THR68      -0.2208
     64  CG2        8.7690   41.9290   32.1260 C.3    68  THR68       0.0379
     65  N          9.3220   38.6690   35.3400 N.am   69  ALA69      -0.1977
     66  CA         9.1470   38.0150   36.6390 C.3    69  ALA69       0.1597
     67  C          8.1290   38.7260   37.5190 C.2    69  ALA69       0.2287
     68  O          8.0710   39.9640   37.5520 O.2    69  ALA69      -0.2864
     69  CB        10.5040   37.8770   37.3040 C.3    69  ALA69       0.0319
     70  N          7.3890   38.1080   41.1380 N.3    71  PHE71      -0.1241
     71  CA         7.7270   38.3120   42.5310 C.3    71  PHE71       0.1605
     72  C          6.5410   38.5620   43.4580 C.2    71  PHE71       0.2264
     73  O          6.7580   39.2640   44.4630 O.2    71  PHE71      -0.2867
     74  CB         8.7500   39.4390   42.8590 C.3    71  PHE71       0.0534
     75  CG        10.0700   39.0900   42.2300 C.ar   71  PHE71      -0.0203
     76  CD1       10.9760   38.3450   42.9360 C.ar   71  PHE71      -0.0042
     77  CD2       10.3650   39.5100   40.9220 C.ar   71  PHE71      -0.0042
     78  CE1       12.2030   37.9920   42.4070 C.ar   71  PHE71      -0.0003
     79  CE2       11.5860   39.1490   40.3880 C.ar   71  PHE71      -0.0003
     80  CZ        12.5030   38.4000   41.1040 C.ar   71  PHE71      -0.0000
     81  N          1.3320   27.7390   28.9710 N.3   154  TRP154     -0.1241
     82  CA         2.2460   28.4720   28.1150 C.3   154  TRP154      0.1605
     83  C          2.2620   27.9690   26.6700 C.2   154  TRP154      0.2264
     84  O          2.5180   28.6490   25.6410 O.2   154  TRP154     -0.2867
     85  CB         3.6640   28.4130   28.7460 C.3   154  TRP154      0.0550
     86  CG         4.2020   29.7900   29.0800 C.ar  154  TRP154      0.0003
     87  CD1        4.2800   30.8550   28.2170 C.ar  154  TRP154      0.0946
     88  CD2        4.7740   30.2380   30.3090 C.ar  154  TRP154      0.0152
     89  NE1        4.9330   31.9060   28.8210 N.ar  154  TRP154     -0.2442
     90  CE2        5.1830   31.5840   30.1220 C.ar  154  TRP154      0.0810
     91  CE3        4.9650   29.6600   31.5650 C.ar  154  TRP154      0.0012
     92  CZ2        5.7500   32.3720   31.1460 C.ar  154  TRP154      0.0191
     93  CZ3        5.5480   30.4060   32.5830 C.ar  154  TRP154      0.0001
     94  CH2        5.9760   31.7260   32.3280 C.ar  154  TRP154      0.0015
     95  N          4.3670   35.1880   37.5800 N.3   177  ILE177     -0.1245
     96  CA         4.8430   35.7370   36.3490 C.3   177  ILE177      0.1561
     97  C          3.8930   36.8010   35.8170 C.2   177  ILE177      0.2260
     98  O          2.6990   36.5860   35.7360 O.2   177  ILE177     -0.2867
     99  CB         4.8980   34.6940   35.1790 C.3   177  ILE177      0.0252
    100  CG1        5.5640   33.3730   35.5240 C.3   177  ILE177      0.0019
    101  CG2        5.5860   35.2620   33.9390 C.3   177  ILE177      0.0019
    102  CD1        6.9790   33.3470   36.0320 C.3   177  ILE177      0.0001
    103  N          9.7990   44.6680   36.7140 N.3   241  ASN241     -0.1240
    104  CA         9.7050   43.8470   37.9140 C.3   241  ASN241      0.1653
    105  C          9.2640   44.6850   39.1340 C.2   241  ASN241      0.2266
    106  O          9.5390   44.3950   40.3000 O.2   241  ASN241     -0.2867
    107  CB        10.9680   43.1050   38.2440 C.3   241  ASN241      0.1155
    108  CG        11.3920   41.9800   37.3300 C.2   241  ASN241      0.2627
    109  OD1       10.6120   41.4290   36.5430 O.2   241  ASN241     -0.2716
    110  ND2       12.6330   41.5230   37.3900 N.am  241  ASN241     -0.0877
@<TRIPOS>BOND
     1    44    43    2
     2    43    42    1
     3    42    45    1
     4    42    41    1
     5    45    46    1
     6    41    36   am
     7    46    48   ar
     8    46    47   ar
     9    34    35    1
    10    48    50   ar
    11    36    37    2
    12    36    35    1
    13    84    83    2
    14    35    38    1
    15    47    49   ar
    16    50    51   ar
    17    83    82    1
    18    38    40    1
    19    38    39    1
    20    49    51   ar
    21    13    12    1
    22    13     7    1
    23    12    11    1
    24    82    85    1
    25    82    81    1
    26    87    89   ar
    27    87    86   ar
    28     7     8    1
    29    52    53    1
    30    85    86    1
    31    89    90   ar
    32    86    88   ar
    33    11     8    1
    34    10     9    2
    35     8     9    1
    36    90    88   ar
    37    90    92   ar
    38    53    56    1
    39    53    54    1
    40     9    14   am
    41    55    54    2
    42    32    30   ar
    43    32    33   ar
    44    88    91   ar
    45    56    57    1
    46    30    28   ar
    47    54    58   am
    48    92    94   ar
    49    33    31   ar
    50    14    15    1
    51    91    93   ar
    52    19    20    1
    53    19    18    1
    54    28    27    1
    55    28    29   ar
    56    15    18    1
    57    15    16    1
    58    64    62    1
    59    27    24    1
    60    58    59    1
    61    23    16   am
    62    23    24    1
    63    94    93   ar
    64    22    20   am
    65    31    29   ar
    66    20    21    2
    67     3     2    1
    68     3     4    2
    69    16    17    2
    70    24    25    1
    71     5     2    1
    72     5     6    1
    73     2     1    1
    74    59    62    1
    75    59    60    1
    76    25    26    2
    77    62    63    1
    78   101    99    1
    79    60    61    2
    80    60    65   am
    81    99   100    1
    82    99    96    1
    83    65    66    1
    84   100   102    1
    85    98    97    2
    86    97    96    1
    87    96    95    1
    88   109   108    2
    89    66    69    1
    90    66    67    1
    91   103   104    1
    92   108   110   am
    93   108   107    1
    94    67    68    2
    95   104   107    1
    96   104   105    1
    97   105   106    2
    98    79    77   ar
    99    79    80   ar
   100    77    75   ar
   101    80    78   ar
   102    70    71    1
   103    75    74    1
   104    75    76   ar
   105    78    76   ar
   106    71    74    1
   107    71    72    1
   108    72    73    2
