@<TRIPOS>MOLECULE
tmp/1ai5B00.pdb
 110 108 0 0 0
SMALL
GASTEIGER

@<TRIPOS>ATOM
      1  N         13.8450   42.2900   34.4110 N.3     1  SER1       -0.1273
      2  CA        13.3200   41.9430   33.0800 C.3     1  SER1        0.1575
      3  C         12.3770   43.1120   32.8020 C.3     1  SER1        0.2036
      4  O         11.5800   43.3300   33.7340 O.3     1  SER1       -0.2187
      5  CB        12.4080   40.7060   33.0680 C.3     1  SER1        0.2036
      6  OG        13.0960   39.5140   33.3400 O.3     1  SER1       -0.2187
      7  N         13.6640   40.1900   28.6380 N.3    22  PRO22      -0.2102
      8  CA        13.6940   39.2180   29.7310 C.3    22  PRO22       0.1504
      9  C         15.1290   39.2620   30.2560 C.2    22  PRO22       0.2576
     10  O         16.0460   39.3020   29.4110 O.2    22  PRO22      -0.2718
     11  CB        13.4090   37.8600   29.0900 C.3    22  PRO22       0.0282
     12  CG        13.5820   38.1280   27.6210 C.3    22  PRO22       0.0208
     13  CD        13.2270   39.5670   27.3710 C.3    22  PRO22       0.0893
     14  N         15.3730   39.3610   31.5470 N.am   23  GLN23      -0.1966
     15  CA        16.7640   39.4580   31.9760 C.3    23  GLN23       0.1733
     16  C         17.1480   38.2680   32.8280 C.2    23  GLN23       0.2616
     17  O         16.9030   38.3560   34.0310 O.2    23  GLN23      -0.2715
     18  CB        16.9980   40.7680   32.7380 C.3    23  GLN23       0.0408
     19  CG        16.9650   42.0200   31.8230 C.3    23  GLN23       0.0908
     20  CD        17.2500   43.3030   32.5950 C.2    23  GLN23       0.2608
     21  OE1       16.4160   43.7320   33.4070 O.2    23  GLN23      -0.2717
     22  NE2       18.4450   43.9140   32.4000 N.am   23  GLN23      -0.0878
     23  N         17.8860   37.3150   32.2530 N.am   24  PHE24      -0.1974
     24  CA        18.1810   36.1020   33.0310 C.3    24  PHE24       0.1639
     25  C         19.6470   36.0480   33.2480 C.2    24  PHE24       0.2290
     26  O         20.1410   35.0520   33.7720 O.2    24  PHE24      -0.2864
     27  CB        17.7930   34.8490   32.1680 C.3    24  PHE24       0.0560
     28  CG        16.3700   34.7830   31.7230 C.ar   24  PHE24      -0.0200
     29  CD1       15.4580   34.2600   32.6360 C.ar   24  PHE24      -0.0042
     30  CD2       15.9280   35.1790   30.4750 C.ar   24  PHE24      -0.0042
     31  CE1       14.1040   34.1440   32.3060 C.ar   24  PHE24      -0.0003
     32  CE2       14.5820   35.0500   30.1490 C.ar   24  PHE24      -0.0003
     33  CZ        13.6640   34.5490   31.0420 C.ar   24  PHE24      -0.0000
     34  N          7.7980   31.4930   25.2720 N.3    56  VAL56      -0.1231
     35  CA         7.5580   32.6160   26.1940 C.3    56  VAL56       0.1692
     36  C          7.5610   33.9230   25.4280 C.2    56  VAL56       0.2588
     37  O          6.9510   34.8860   25.8900 O.2    56  VAL56      -0.2718
     38  CB         8.5530   32.6000   27.3550 C.3    56  VAL56       0.0266
     39  CG1        8.3040   33.7550   28.3390 C.3    56  VAL56       0.0020
     40  CG2        8.5130   31.3040   28.1550 C.3    56  VAL56       0.0020
     41  N          8.2670   34.1070   24.2840 N.am   57  PHE57      -0.2029
     42  CA         8.2440   35.3940   23.5900 C.3    57  PHE57       0.1325
     43  C          7.9050   35.2630   22.1270 C.3    57  PHE57       0.2039
     44  O          8.7760   34.6600   21.4500 O.3    57  PHE57      -0.2185
     45  CB         9.6220   36.1070   23.6870 C.3    57  PHE57       0.0507
     46  CG        10.2590   35.9640   25.0290 C.ar   57  PHE57      -0.0204
     47  CD1        9.7750   36.7130   26.0850 C.ar   57  PHE57      -0.0042
     48  CD2       11.2240   35.0090   25.3040 C.ar   57  PHE57      -0.0042
     49  CE1       10.2190   36.5430   27.3810 C.ar   57  PHE57      -0.0003
     50  CE2       11.7330   34.8470   26.5750 C.ar   57  PHE57      -0.0003
     51  CZ        11.1830   35.5800   27.6310 C.ar   57  PHE57      -0.0000
     52  N          6.6550   38.1770   28.8450 N.3    67  SER67      -0.1202
     53  CA         6.6690   37.9520   30.2840 C.3    67  SER67       0.2020
     54  C          7.7280   38.7650   31.0250 C.2    67  SER67       0.2619
     55  O          8.7170   39.2410   30.4040 O.2    67  SER67      -0.2717
     56  CB         7.0630   36.4650   30.5680 C.3    67  SER67       0.2103
     57  OG         5.8560   35.7010   30.7120 O.3    67  SER67      -0.2182
     58  N          7.5570   39.0050   32.3150 N.am   68  THR68      -0.1938
     59  CA         8.5800   39.4840   33.2260 C.3    68  THR68       0.2028
     60  C          8.3490   38.7210   34.5340 C.2    68  THR68       0.2642
     61  O          7.2630   38.1440   34.6070 O.2    68  THR68      -0.2714
     62  CB         8.6410   40.9880   33.5190 C.3    68  THR68       0.1808
     63  OG1        7.4880   41.4930   34.2160 O.3    68  THR68      -0.2208
     64  CG2        8.8070   41.7880   32.2200 C.3    68  THR68       0.0379
     65  N          9.2720   38.6940   35.4630 N.am   69  ALA69      -0.1977
     66  CA         9.1480   37.9680   36.7310 C.3    69  ALA69       0.1597
     67  C          8.0910   38.5730   37.6360 C.2    69  ALA69       0.2287
     68  O          8.0900   39.8030   37.7150 O.2    69  ALA69      -0.2864
     69  CB        10.5450   37.9990   37.3660 C.3    69  ALA69       0.0319
     70  N          7.3400   38.1230   41.1700 N.3    71  PHE71      -0.1241
     71  CA         7.7350   38.3610   42.5210 C.3    71  PHE71       0.1605
     72  C          6.5670   38.6120   43.4670 C.2    71  PHE71       0.2264
     73  O          6.6920   39.5170   44.2950 O.2    71  PHE71      -0.2867
     74  CB         8.6820   39.5640   42.7410 C.3    71  PHE71       0.0534
     75  CG        10.0320   39.1790   42.2290 C.ar   71  PHE71      -0.0203
     76  CD1       10.8710   38.3710   42.9650 C.ar   71  PHE71      -0.0042
     77  CD2       10.4110   39.6470   40.9660 C.ar   71  PHE71      -0.0042
     78  CE1       12.1270   38.0310   42.4690 C.ar   71  PHE71      -0.0003
     79  CE2       11.6690   39.2980   40.4890 C.ar   71  PHE71      -0.0003
     80  CZ        12.5220   38.5030   41.2120 C.ar   71  PHE71      -0.0000
     81  N          1.2920   27.7050   29.0050 N.3   154  TRP154     -0.1241
     82  CA         2.1710   28.5110   28.1750 C.3   154  TRP154      0.1605
     83  C          2.2300   28.0170   26.7040 C.2   154  TRP154      0.2264
     84  O          2.4670   28.7590   25.7140 O.2   154  TRP154     -0.2867
     85  CB         3.5850   28.4710   28.7710 C.3   154  TRP154      0.0550
     86  CG         4.2240   29.8040   29.0380 C.ar  154  TRP154      0.0003
     87  CD1        4.3780   30.8470   28.1780 C.ar  154  TRP154      0.0946
     88  CD2        4.8360   30.2070   30.2680 C.ar  154  TRP154      0.0152
     89  NE1        4.9760   31.8970   28.8100 N.ar  154  TRP154     -0.2442
     90  CE2        5.2470   31.5400   30.1080 C.ar  154  TRP154      0.0810
     91  CE3        4.9370   29.6000   31.5350 C.ar  154  TRP154      0.0012
     92  CZ2        5.8160   32.2890   31.1500 C.ar  154  TRP154      0.0191
     93  CZ3        5.5350   30.3110   32.5700 C.ar  154  TRP154      0.0001
     94  CH2        6.0070   31.6150   32.3240 C.ar  154  TRP154      0.0015
     95  N          4.3680   35.1460   37.5910 N.3   177  ILE177     -0.1245
     96  CA         4.8530   35.6550   36.3450 C.3   177  ILE177      0.1561
     97  C          3.9050   36.7230   35.8270 C.2   177  ILE177      0.2260
     98  O          2.7050   36.5000   35.8230 O.2   177  ILE177     -0.2867
     99  CB         4.9030   34.5990   35.1760 C.3   177  ILE177      0.0252
    100  CG1        5.5700   33.3210   35.5670 C.3   177  ILE177      0.0019
    101  CG2        5.5810   35.1740   33.9190 C.3   177  ILE177      0.0019
    102  CD1        6.9980   33.1950   36.0260 C.3   177  ILE177      0.0001
    103  N          9.8060   44.6250   36.7280 N.3   241  ASN241     -0.1240
    104  CA         9.6650   43.8090   37.9490 C.3   241  ASN241      0.1653
    105  C          9.2180   44.6340   39.1870 C.2   241  ASN241      0.2266
    106  O          9.5890   44.3960   40.3390 O.2   241  ASN241     -0.2867
    107  CB        10.8830   43.0170   38.2880 C.3   241  ASN241      0.1155
    108  CG        11.3380   41.8650   37.4300 C.2   241  ASN241      0.2627
    109  OD1       10.4950   41.1390   36.9110 O.2   241  ASN241     -0.2716
    110  ND2       12.6560   41.6060   37.3900 N.am  241  ASN241     -0.0877
@<TRIPOS>BOND
     1    44    43    1
     2    43    42    1
     3    42    45    1
     4    42    41    1
     5    45    46    1
     6    41    36   am
     7    46    48   ar
     8    46    47   ar
     9    34    35    1
    10    48    50   ar
    11    36    37    2
    12    36    35    1
    13    84    83    2
    14    47    49   ar
    15    35    38    1
    16    50    51   ar
    17    83    82    1
    18    38    40    1
    19    38    39    1
    20    13    12    1
    21    13     7    1
    22    49    51   ar
    23    12    11    1
    24    82    85    1
    25    82    81    1
    26    87    89   ar
    27    87    86   ar
    28     7     8    1
    29    85    86    1
    30    89    90   ar
    31    52    53    1
    32    86    88   ar
    33    11     8    1
    34    10     9    2
    35     8     9    1
    36    90    88   ar
    37    90    92   ar
    38    32    30   ar
    39    32    33   ar
    40     9    14   am
    41    88    91   ar
    42    53    56    1
    43    53    54    1
    44    55    54    2
    45    30    28   ar
    46    56    57    1
    47    54    58   am
    48    33    31   ar
    49    92    94   ar
    50    91    93   ar
    51    14    15    1
    52    28    27    1
    53    28    29   ar
    54    19    20    1
    55    19    18    1
    56    15    18    1
    57    15    16    1
    58    27    24    1
    59    64    62    1
    60    23    16   am
    61    23    24    1
    62    31    29   ar
    63    58    59    1
    64    94    93   ar
    65    22    20   am
    66    20    21    2
    67     3     2    1
    68     3     4    1
    69    16    17    2
    70    24    25    1
    71     5     2    1
    72     5     6    1
    73     2     1    1
    74    59    62    1
    75    59    60    1
    76    25    26    2
    77    62    63    1
    78   101    99    1
    79    60    61    2
    80    60    65   am
    81    99   100    1
    82    99    96    1
    83    65    66    1
    84   100   102    1
    85    98    97    2
    86    97    96    1
    87    96    95    1
    88   103   104    1
    89    66    69    1
    90    66    67    1
    91   109   108    2
    92   110   108   am
    93   108   107    1
    94    67    68    2
    95   104   107    1
    96   104   105    1
    97   105   106    2
    98    79    77   ar
    99    79    80   ar
   100    77    75   ar
   101    70    71    1
   102    80    78   ar
   103    75    74    1
   104    75    76   ar
   105    78    76   ar
   106    71    74    1
   107    71    72    1
   108    72    73    2
