@<TRIPOS>MOLECULE
tmp/1ai7B00.pdb
 91 90 0 0 0
SMALL
GASTEIGER

@<TRIPOS>ATOM
      1  N         13.9450   41.9900   34.3940 N.3     1  SER1       -0.1217
      2  CA        13.2930   41.8990   33.0630 C.3     1  SER1        0.1889
      3  C         12.3780   43.0720   32.8230 C.2     1  SER1        0.2288
      4  O         11.5860   43.3300   33.7420 O.2     1  SER1       -0.2866
      5  CB        12.3100   40.7190   33.2860 C.3     1  SER1        0.2089
      6  OG        13.0860   39.5760   33.0920 O.3     1  SER1       -0.2183
      7  N         13.5990   40.2240   28.6240 N.3    22  PRO22      -0.2102
      8  CA        13.6530   39.2690   29.7250 C.3    22  PRO22       0.1504
      9  C         15.0890   39.2340   30.2440 C.2    22  PRO22       0.2576
     10  O         15.9480   39.2630   29.3810 O.2    22  PRO22      -0.2718
     11  CB        13.1650   37.9430   29.1590 C.3    22  PRO22       0.0282
     12  CG        13.4740   38.0970   27.6720 C.3    22  PRO22       0.0208
     13  CD        13.2750   39.5490   27.3510 C.3    22  PRO22       0.0893
     14  N         15.3660   39.3290   31.5410 N.am   23  GLN23      -0.1966
     15  CA        16.7600   39.4240   31.9940 C.3    23  GLN23       0.1733
     16  C         17.1410   38.1750   32.7180 C.2    23  GLN23       0.2616
     17  O         16.7780   38.0580   33.8720 O.2    23  GLN23      -0.2715
     18  CB        16.9530   40.6780   32.8330 C.3    23  GLN23       0.0408
     19  CG        16.9670   41.9420   31.9560 C.3    23  GLN23       0.0908
     20  CD        17.1830   43.2290   32.7190 C.2    23  GLN23       0.2608
     21  OE1       16.3440   43.5290   33.5770 O.2    23  GLN23      -0.2717
     22  NE2       18.2690   43.9560   32.3970 N.am   23  GLN23      -0.0878
     23  N         17.8900   37.2750   32.1080 N.am   24  PHE24      -0.1974
     24  CA        18.1820   36.0020   32.7220 C.3    24  PHE24       0.1639
     25  C         19.6480   35.8950   33.0490 C.2    24  PHE24       0.2290
     26  O         20.0370   34.7890   33.4500 O.2    24  PHE24      -0.2864
     27  CB        17.7950   34.9630   31.6400 C.3    24  PHE24       0.0560
     28  CG        16.3760   34.8600   31.1870 C.ar   24  PHE24      -0.0200
     29  CD1       15.4120   34.4160   32.0970 C.ar   24  PHE24      -0.0042
     30  CD2       15.9890   35.0920   29.8780 C.ar   24  PHE24      -0.0042
     31  CE1       14.0820   34.2480   31.7190 C.ar   24  PHE24      -0.0003
     32  CE2       14.6660   34.9010   29.4970 C.ar   24  PHE24      -0.0003
     33  CZ        13.6920   34.5000   30.4230 C.ar   24  PHE24      -0.0000
     34  N          7.8400   31.4680   25.2110 N.3    56  VAL56      -0.1231
     35  CA         7.5470   32.5920   26.1370 C.3    56  VAL56       0.1692
     36  C          7.5130   33.8890   25.3890 C.2    56  VAL56       0.2592
     37  O          6.8510   34.8140   25.8770 O.2    56  VAL56      -0.2718
     38  CB         8.5520   32.5770   27.3000 C.3    56  VAL56       0.0266
     39  CG1        8.3980   33.7290   28.2880 C.3    56  VAL56       0.0020
     40  CG2        8.4760   31.1940   27.9740 C.3    56  VAL56       0.0020
     41  N          8.2050   34.0640   24.2520 N.am   57  PHE57      -0.1976
     42  CA         8.1990   35.3430   23.5480 C.3    57  PHE57       0.1639
     43  C          7.8780   35.1670   22.0750 C.2    57  PHE57       0.2290
     44  O          8.6710   34.4640   21.4150 O.2    57  PHE57      -0.2864
     45  CB         9.5600   36.0770   23.6330 C.3    57  PHE57       0.0560
     46  CG        10.2090   35.9870   24.9810 C.ar   57  PHE57      -0.0200
     47  CD1        9.7190   36.7670   26.0220 C.ar   57  PHE57      -0.0042
     48  CD2       11.2100   35.0670   25.2400 C.ar   57  PHE57      -0.0042
     49  CE1       10.2070   36.6210   27.3060 C.ar   57  PHE57      -0.0003
     50  CE2       11.7180   34.9170   26.5180 C.ar   57  PHE57      -0.0003
     51  CZ        11.1830   35.6690   27.5590 C.ar   57  PHE57      -0.0000
     52  N          6.5710   38.2310   28.8680 N.3    67  SER67      -0.1202
     53  CA         6.5790   37.9510   30.2840 C.3    67  SER67       0.2020
     54  C          7.6620   38.7560   31.0060 C.2    67  SER67       0.2619
     55  O          8.6310   39.1720   30.3500 O.2    67  SER67      -0.2717
     56  CB         6.9650   36.4570   30.3970 C.3    67  SER67       0.2103
     57  OG         5.8920   35.6260   30.6900 O.3    67  SER67      -0.2182
     58  N          7.5220   38.9680   32.3130 N.am   68  THR68      -0.1938
     59  CA         8.5400   39.4660   33.2270 C.3    68  THR68       0.2028
     60  C          8.3230   38.7470   34.5570 C.2    68  THR68       0.2638
     61  O          7.1600   38.3220   34.7410 O.2    68  THR68      -0.2714
     62  CB         8.5990   40.9650   33.3930 C.3    68  THR68       0.1808
     63  OG1        7.4750   41.5050   34.1180 O.3    68  THR68      -0.2208
     64  CG2        8.7230   41.8060   32.0960 C.3    68  THR68       0.0379
     65  N          9.2950   38.4050   35.3770 N.am   69  ALA69      -0.2030
     66  CA         9.1090   37.7290   36.6630 C.3    69  ALA69       0.1283
     67  C          8.1830   38.5440   37.5710 C.3    69  ALA69       0.2036
     68  O          8.3740   39.7770   37.5300 O.3    69  ALA69      -0.2185
     69  CB        10.5030   37.5600   37.2260 C.3    69  ALA69       0.0262
     70  N          1.2950   27.7270   28.9690 N.3   154  TRP154     -0.1241
     71  CA         2.2020   28.5490   28.1740 C.3   154  TRP154      0.1605
     72  C          2.2620   28.0550   26.7160 C.2   154  TRP154      0.2264
     73  O          2.4900   28.8130   25.7570 O.2   154  TRP154     -0.2867
     74  CB         3.5770   28.4950   28.8530 C.3   154  TRP154      0.0550
     75  CG         4.1920   29.8400   29.0930 C.ar  154  TRP154      0.0003
     76  CD1        4.2980   30.8970   28.2270 C.ar  154  TRP154      0.0946
     77  CD2        4.7890   30.2670   30.3110 C.ar  154  TRP154      0.0152
     78  NE1        4.8580   31.9690   28.8430 N.ar  154  TRP154     -0.2442
     79  CE2        5.1730   31.6080   30.1410 C.ar  154  TRP154      0.0810
     80  CE3        4.9240   29.6750   31.5720 C.ar  154  TRP154      0.0012
     81  CZ2        5.7920   32.3490   31.1530 C.ar  154  TRP154      0.0191
     82  CZ3        5.5710   30.3780   32.5940 C.ar  154  TRP154      0.0001
     83  CH2        6.0120   31.6830   32.3370 C.ar  154  TRP154      0.0015
     84  N          4.2880   35.1040   37.5670 N.3   177  ILE177     -0.1245
     85  CA         4.7880   35.6880   36.3650 C.3   177  ILE177      0.1561
     86  C          3.8480   36.7550   35.8340 C.2   177  ILE177      0.2260
     87  O          2.6540   36.5400   35.7000 O.2   177  ILE177     -0.2867
     88  CB         4.9830   34.6450   35.2110 C.3   177  ILE177      0.0252
     89  CG1        5.6710   33.3600   35.5900 C.3   177  ILE177      0.0019
     90  CG2        5.6850   35.2080   33.9730 C.3   177  ILE177      0.0019
     91  CD1        7.0790   33.3570   36.1410 C.3   177  ILE177      0.0001
@<TRIPOS>BOND
     1    44    43    2
     2    43    42    1
     3    42    45    1
     4    42    41    1
     5    45    46    1
     6    41    36   am
     7    46    48   ar
     8    46    47   ar
     9    34    35    1
    10    48    50   ar
    11    36    37    2
    12    36    35    1
    13    73    72    2
    14    47    49   ar
    15    35    38    1
    16    50    51   ar
    17    72    71    1
    18    38    40    1
    19    38    39    1
    20    49    51   ar
    21    13    12    1
    22    13     7    1
    23    12    11    1
    24    71    74    1
    25    71    70    1
    26    76    78   ar
    27    76    75   ar
    28     7     8    1
    29    78    79   ar
    30    74    75    1
    31    52    53    1
    32    75    77   ar
    33    11     8    1
    34    10     9    2
    35    32    30   ar
    36    32    33   ar
    37     8     9    1
    38    30    28   ar
    39    79    77   ar
    40    79    81   ar
    41     9    14   am
    42    53    56    1
    43    53    54    1
    44    77    80   ar
    45    55    54    2
    46    56    57    1
    47    33    31   ar
    48    54    58   am
    49    81    83   ar
    50    28    27    1
    51    28    29   ar
    52    14    15    1
    53    80    82   ar
    54    27    24    1
    55    31    29   ar
    56    19    20    1
    57    19    18    1
    58    15    16    1
    59    15    18    1
    60    64    62    1
    61    23    16   am
    62    23    24    1
    63    58    59    1
    64    83    82   ar
    65    22    20   am
    66    16    17    2
    67    20    21    2
    68    24    25    1
    69     3     2    1
    70     3     4    2
    71    25    26    2
    72     2     5    1
    73     2     1    1
    74     6     5    1
    75    59    62    1
    76    59    60    1
    77    62    63    1
    78    90    88    1
    79    60    61    2
    80    60    65   am
    81    88    89    1
    82    88    85    1
    83    65    66    1
    84    89    91    1
    85    87    86    2
    86    86    85    1
    87    85    84    1
    88    66    69    1
    89    66    67    1
    90    68    67    1
