@<TRIPOS>MOLECULE
tmp/1ai8B01.pdb
 204 202 0 0 0
SMALL
GASTEIGER

@<TRIPOS>ATOM
      1  N          6.0400   -6.3680   17.3720 N.3    43  HIS43      -0.1241
      2  CA         6.1330   -7.7720   17.8380 C.3    43  HIS43       0.1621
      3  C          6.9520   -7.9230   19.1300 C.2    43  HIS43       0.2264
      4  O          6.9880   -9.0020   19.7440 O.2    43  HIS43      -0.2867
      5  CB         6.6800   -8.6660   16.7200 C.3    43  HIS43       0.0745
      6  CG         8.1990   -8.7990   16.6980 C.ar   43  HIS43       0.0817
      7  ND1        8.9770   -8.1440   15.7510 N.ar   43  HIS43      -0.2268
      8  CD2        9.0570   -9.5020   17.4800 C.ar   43  HIS43       0.1154
      9  CE1       10.2400   -8.4540   15.9740 C.ar   43  HIS43       0.1986
     10  NE2       10.3050   -9.2630   17.0020 N.ar   43  HIS43      -0.2212
     11  N          2.7450  -10.4540   20.3160 N.3    47  TYR47      -0.1241
     12  CA         3.0150  -11.5910   19.4470 C.3    47  TYR47       0.1605
     13  C          2.3400  -12.9210   20.0080 C.2    47  TYR47       0.2264
     14  O          2.9120  -13.7990   20.6260 O.2    47  TYR47      -0.2867
     15  CB         4.4960  -11.8130   19.2720 C.3    47  TYR47       0.0534
     16  CG         4.7350  -12.6450   18.0340 C.ar   47  TYR47      -0.0201
     17  CD1        4.3090  -12.1640   16.7900 C.ar   47  TYR47      -0.0009
     18  CD2        5.3510  -13.8830   18.1510 C.ar   47  TYR47      -0.0009
     19  CE1        4.4970  -12.9460   15.6490 C.ar   47  TYR47       0.0417
     20  CE2        5.5350  -14.6680   17.0140 C.ar   47  TYR47       0.0417
     21  CZ         5.1060  -14.2010   15.7650 C.ar   47  TYR47       0.1957
     22  OH         5.2820  -14.9800   14.6680 O.3    47  TYR47      -0.2866
     23  N          3.5040  -16.6210   20.4990 N.3    50  TRP50      -0.1241
     24  CA         4.4410  -16.9510   21.5910 C.3    50  TRP50       0.1605
     25  C          3.8510  -16.4680   22.9250 C.2    50  TRP50       0.2264
     26  O          4.5620  -16.3510   23.9320 O.2    50  TRP50      -0.2867
     27  CB         5.7700  -16.2000   21.3310 C.3    50  TRP50       0.0550
     28  CG         6.6230  -16.6650   20.1550 C.ar   50  TRP50       0.0003
     29  CD1        6.4610  -17.7560   19.3950 C.ar   50  TRP50       0.0946
     30  CD2        7.7680  -15.9630   19.6930 C.ar   50  TRP50       0.0152
     31  NE1        7.5200  -17.7470   18.4240 N.ar   50  TRP50      -0.2442
     32  CE2        8.2730  -16.6840   18.6180 C.ar   50  TRP50       0.0810
     33  CE3        8.4080  -14.7820   20.0910 C.ar   50  TRP50       0.0012
     34  CZ2        9.4080  -16.2790   17.8980 C.ar   50  TRP50       0.0191
     35  CZ3        9.5470  -14.3850   19.3600 C.ar   50  TRP50       0.0001
     36  CH2       10.0210  -15.0990   18.3150 C.ar   50  TRP50       0.0015
     37  N          0.4480   -9.7170   12.7770 N.3    92  TRP92      -0.1241
     38  CA         1.2090  -10.7040   13.5640 C.3    92  TRP92       0.1605
     39  C          0.8470  -12.1340   13.1570 C.2    92  TRP92       0.2264
     40  O          1.5480  -13.0940   13.4920 O.2    92  TRP92      -0.2867
     41  CB         0.9480  -10.5590   15.0760 C.3    92  TRP92       0.0550
     42  CG        -0.5360  -10.5010   15.4860 C.ar   92  TRP92       0.0003
     43  CD1       -1.2680   -9.3980   15.6910 C.ar   92  TRP92       0.0946
     44  CD2       -1.3800  -11.6270   15.7300 C.ar   92  TRP92       0.0152
     45  NE1       -2.5820   -9.8210   16.0690 N.ar   92  TRP92      -0.2442
     46  CE2       -2.6270  -11.1290   16.0860 C.ar   92  TRP92       0.0810
     47  CE3       -1.1940  -13.0150   15.6770 C.ar   92  TRP92       0.0012
     48  CZ2       -3.7210  -11.9460   16.4020 C.ar   92  TRP92       0.0191
     49  CZ3       -2.3020  -13.8310   15.9940 C.ar   92  TRP92       0.0001
     50  CH2       -3.5060  -13.3190   16.3400 C.ar   92  TRP92       0.0015
     51  N          0.5480  -13.3860    9.9720 N.3    94  GLU94      -0.1231
     52  CA         1.2230  -13.9120    8.7770 C.3    94  GLU94       0.1699
     53  C          2.6990  -13.5250    8.6140 C.2    94  GLU94       0.2592
     54  O          3.5960  -14.3700    8.7160 O.2    94  GLU94      -0.2718
     55  CB         0.5250  -13.4240    7.5070 C.3    94  GLU94       0.0402
     56  CG         1.0230  -14.1370    6.2440 C.3    94  GLU94       0.1161
     57  CD         0.6670  -13.4100    4.9400 C.2    94  GLU94       0.3649
     58  OE1       -0.3050  -12.5630    4.9070 O.co2  94  GLU94      -0.2457
     59  OE2        1.3430  -13.6510    3.8670 O.co2  94  GLU94      -0.2457
     60  N          2.9650  -12.2550    8.3400 N.am   95  ASN95      -0.1960
     61  CA         4.3370  -11.8620    7.9660 C.3    95  ASN95       0.1819
     62  C          4.8940  -10.6200    8.6710 C.2    95  ASN95       0.2621
     63  O          5.8560  -10.0100    8.1840 O.2    95  ASN95      -0.2715
     64  CB         4.3720  -11.5330    6.4780 C.3    95  ASN95       0.1195
     65  CG         3.3320  -10.4780    6.0990 C.2    95  ASN95       0.2630
     66  OD1        2.5820  -10.0200    6.9630 O.2    95  ASN95      -0.2716
     67  ND2        3.2390  -10.0550    4.8530 N.am   95  ASN95      -0.0877
     68  N          4.3080  -10.2590    9.7890 N.am   96  LEU96      -0.1977
     69  CA         4.7730   -9.0970   10.5820 C.3    96  LEU96       0.1596
     70  C          4.7400   -7.8010    9.7490 C.2    96  LEU96       0.2287
     71  O          5.5760   -6.8980    9.9000 O.2    96  LEU96      -0.2864
     72  CB         6.2150   -9.3150   11.0660 C.3    96  LEU96       0.0297
     73  CG         6.3560  -10.4350   12.1100 C.3    96  LEU96       0.0022
     74  CD1        7.8030  -10.6210   12.5830 C.3    96  LEU96       0.0001
     75  CD2        5.5360  -10.1980   13.3830 C.3    96  LEU96       0.0001
     76  N         13.3700  -15.6290    0.3470 N.3   171  THR171     -0.1203
     77  CA        12.4570  -16.1120    1.4010 C.3   171  THR171      0.1994
     78  C         11.1310  -16.6370    0.8420 C.2   171  THR171      0.2618
     79  O         10.7860  -16.4030   -0.3240 O.2   171  THR171     -0.2717
     80  CB        12.1490  -14.9270    2.3270 C.3   171  THR171      0.1784
     81  OG1       11.3470  -15.3350    3.4210 O.3   171  THR171     -0.2211
     82  CG2       11.4010  -13.7930    1.6120 C.3   171  THR171      0.0376
     83  N         10.4270  -17.3390    1.7200 N.am  172  ARG172     -0.1965
     84  CA         9.0980  -17.8850    1.4230 C.3   172  ARG172      0.1729
     85  C          8.0270  -16.9690    2.0460 C.2   172  ARG172      0.2616
     86  O          6.8330  -17.0660    1.7330 O.2   172  ARG172     -0.2715
     87  CB         8.9610  -19.3060    1.9750 C.3   172  ARG172      0.0348
     88  CG         9.9130  -20.3020    1.3040 C.3   172  ARG172      0.0492
     89  CD         9.7180  -21.7320    1.8030 C.3   172  ARG172      0.2205
     90  NE         8.3870  -22.2540    1.4870 N.pl3 172  ARG172     -0.0865
     91  CZ         8.0170  -23.5210    1.6610 C.cat 172  ARG172      0.5346
     92  NH1        8.8680  -24.4220    2.1600 N.pl3 172  ARG172      0.1354
     93  NH2        6.7990  -23.9870    1.3600 N.pl3 172  ARG172      0.1354
     94  N          8.4720  -16.0740    2.9360 N.am  173  ILE173     -0.1977
     95  CA         7.5550  -15.0990    3.5710 C.3   173  ILE173      0.1596
     96  C          7.0970  -14.0770    2.5160 C.2   173  ILE173      0.2287
     97  O          7.8730  -13.6730    1.6400 O.2   173  ILE173     -0.2864
     98  CB         8.2360  -14.2920    4.6830 C.3   173  ILE173      0.0276
     99  CG1        8.8240  -15.1730    5.7890 C.3   173  ILE173      0.0022
    100  CG2        7.2830  -13.3240    5.3870 C.3   173  ILE173      0.0022
    101  CD1        7.7570  -15.9150    6.5960 C.3   173  ILE173      0.0001
    102  N         24.6710   -9.1950   10.1880 N.3   193  ASP193     -0.1225
    103  CA        23.2230   -9.2540   10.2880 C.3   193  ASP193      0.1805
    104  C         22.7900   -8.9330   11.7080 C.2   193  ASP193      0.2598
    105  O         23.6160   -8.8740   12.6300 O.2   193  ASP193     -0.2718
    106  CB        22.7780  -10.6910    9.9740 C.3   193  ASP193      0.1424
    107  CG        21.2750  -10.8470    9.7330 C.2   193  ASP193      0.3668
    108  OD1       20.5110   -9.8100    9.7160 O.co2 193  ASP193     -0.2456
    109  OD2       20.7720  -12.0220    9.5450 O.co2 193  ASP193     -0.2456
    110  N         21.5050   -8.7190   11.8320 N.am  194  ALA194     -0.1966
    111  CA        20.8720   -8.5360   13.1330 C.3   194  ALA194      0.1728
    112  C         20.5480   -9.9520   13.6070 C.2   194  ALA194      0.2616
    113  O         20.6200  -10.9180   12.8350 O.2   194  ALA194     -0.2715
    114  CB        19.5940   -7.7050   12.9770 C.3   194  ALA194      0.0334
    115  N         20.2050  -10.1010   14.8550 N.am  195  CYS195     -0.1954
    116  CA        19.8600  -11.4270   15.3820 C.3   195  CYS195      0.1843
    117  C         18.8450  -11.2780   16.5000 C.2   195  CYS195      0.2625
    118  O         18.4100  -10.1660   16.8190 O.2   195  CYS195     -0.2714
    119  CB        21.1130  -12.1370   15.9030 C.3   195  CYS195      0.0997
    120  SG        20.9840  -13.9540   15.8300 S.3   195  CYS195     -0.0797
    121  N         18.4980  -12.4100   17.0600 N.am  196  GLU196     -0.1963
    122  CA        17.5280  -12.4890   18.1540 C.3   196  GLU196      0.1733
    123  C         17.9190  -11.5300   19.2870 C.2   196  GLU196      0.2616
    124  O         19.0230  -11.6180   19.8450 O.2   196  GLU196     -0.2715
    125  CB        17.4990  -13.9140   18.6980 C.3   196  GLU196      0.0429
    126  CG        16.3930  -14.1480   19.7230 C.3   196  GLU196      0.1163
    127  CD        16.3560  -15.5930   20.2170 C.2   196  GLU196      0.3649
    128  OE1       17.1630  -16.4650   19.7140 O.co2 196  GLU196     -0.2457
    129  OE2       15.5200  -15.9380   21.1350 O.co2 196  GLU196     -0.2457
    130  N         16.9890  -10.6350   19.5880 N.am  197  GLY197     -0.1955
    131  CA        17.1460   -9.6470   20.6710 C.3   197  GLY197      0.1869
    132  C         17.3990   -8.2370   20.1150 C.2   197  GLY197      0.2309
    133  O         17.3400   -7.2400   20.8510 O.2   197  GLY197     -0.2863
    134  N         15.6510   -7.0390   17.5120 N.3   199  SER199     -0.1217
    135  CA        14.3340   -6.5740   17.0490 C.3   199  SER199      0.1889
    136  C         13.9240   -5.2980   17.7870 C.2   199  SER199      0.2288
    137  O         14.1500   -5.1580   18.9960 O.2   199  SER199     -0.2866
    138  CB        13.2680   -7.6350   17.3320 C.3   199  SER199      0.2089
    139  OG        13.4340   -8.7400   16.4600 O.3   199  SER199     -0.2183
    140  N         14.4570   -3.1040   13.0350 N.3   219  VAL219     -0.1231
    141  CA        14.7580   -4.5560   12.9790 C.3   219  VAL219      0.1692
    142  C         13.4570   -5.3240   13.2200 C.2   219  VAL219      0.2593
    143  O         12.8200   -5.1860   14.2740 O.2   219  VAL219     -0.2718
    144  CB        15.7790   -4.9510   14.0490 C.3   219  VAL219      0.0266
    145  CG1       16.1740   -6.4310   13.9680 C.3   219  VAL219      0.0020
    146  CG2       17.0860   -4.1640   13.9530 C.3   219  VAL219      0.0020
    147  N         13.0820   -6.1320   12.2390 N.am  220  SER220     -0.1938
    148  CA        11.7920   -6.8430   12.2850 C.3   220  SER220      0.2055
    149  C         11.9360   -8.3730   12.3210 C.2   220  SER220      0.2643
    150  O         11.5410   -9.0300   13.2920 O.2   220  SER220     -0.2714
    151  CB        10.9470   -6.4670   11.0730 C.3   220  SER220      0.2130
    152  OG         9.6350   -6.9920   11.2150 O.3   220  SER220     -0.2179
    153  N         12.4810   -8.9610   11.2630 N.am  221  TRP221     -0.1959
    154  CA        12.6150  -10.4330   11.2160 C.3   221  TRP221      0.1771
    155  C         13.7150  -10.8990   10.2670 C.2   221  TRP221      0.2620
    156  O         14.3110  -10.1090    9.5320 O.2   221  TRP221     -0.2715
    157  CB        11.2980  -11.0830   10.7590 C.3   221  TRP221      0.0590
    158  CG        10.7610  -10.5920    9.3940 C.ar  221  TRP221      0.0006
    159  CD1       10.0420   -9.4820    9.1540 C.ar  221  TRP221      0.0946
    160  CD2       10.9340  -11.2620    8.1450 C.ar  221  TRP221      0.0152
    161  NE1        9.7410   -9.4600    7.7510 N.ar  221  TRP221     -0.2442
    162  CE2       10.2660  -10.5160    7.1800 C.ar  221  TRP221      0.0810
    163  CE3       11.5910  -12.4370    7.7590 C.ar  221  TRP221      0.0012
    164  CZ2       10.1980  -10.8910    5.8290 C.ar  221  TRP221      0.0191
    165  CZ3       11.5260  -12.8010    6.3960 C.ar  221  TRP221      0.0001
    166  CH2       10.8600  -12.0640    5.4790 C.ar  221  TRP221      0.0015
    167  N         13.9430  -12.2010   10.3200 N.am  222  GLY222     -0.1940
    168  CA        14.9450  -12.8590    9.4790 C.3   222  GLY222      0.2014
    169  C         14.8070  -14.3710    9.5970 C.2   222  GLY222      0.2639
    170  O         13.9820  -14.8900   10.3530 O.2   222  GLY222     -0.2714
    171  N         15.6240  -15.0520    8.8450 N.am  223  GLU223     -0.1963
    172  CA        15.6380  -16.5060    8.8580 C.3   223  GLU223      0.1733
    173  C         17.0350  -16.9540    9.2160 C.2   223  GLU223      0.2617
    174  O         17.9030  -17.0920    8.3440 O.2   223  GLU223     -0.2715
    175  CB        15.2240  -17.0200    7.4970 C.3   223  GLU223      0.0429
    176  CG        14.5710  -18.3830    7.5950 C.3   223  GLU223      0.1163
    177  CD        14.3930  -19.0560    6.2480 C.2   223  GLU223      0.3649
    178  OE1       14.1930  -18.3390    5.1960 O.co2 223  GLU223     -0.2457
    179  OE2       14.4330  -20.3390    6.1760 O.co2 223  GLU223     -0.2457
    180  N         17.1990  -17.1740   10.4970 N.am  224  GLY224     -0.1940
    181  CA        18.5050  -17.4630   11.0620 C.3   224  GLY224      0.2014
    182  C         19.1780  -16.1080   11.1860 C.2   224  GLY224      0.2639
    183  O         18.5130  -15.0640   11.1360 O.2   224  GLY224     -0.2714
    184  N         20.4640  -16.1140   11.3390 N.am  225  CYS225     -0.1967
    185  CA        21.2190  -14.8660   11.4380 C.3   225  CYS225      0.1712
    186  C         22.5370  -15.0250   10.7000 C.2   225  CYS225      0.2296
    187  O         23.3090  -15.9610   10.9660 O.2   225  CYS225     -0.2864
    188  CB        21.5060  -14.5280   12.9060 C.3   225  CYS225      0.0983
    189  SG        20.0190  -14.5800   13.9550 S.3   225  CYS225     -0.0798
    190  N         23.0850  -15.8880    7.7140 N.3   227  ARG227     -0.1245
    191  CA        23.1600  -17.0610    6.8280 C.3   227  ARG227      0.1563
    192  C         23.3840  -16.5830    5.4010 C.2   227  ARG227      0.2260
    193  O         22.8550  -15.5430    4.9890 O.2   227  ARG227     -0.2867
    194  CB        21.8410  -17.8370    6.8200 C.3   227  ARG227      0.0307
    195  CG        21.4940  -18.4780    8.1570 C.3   227  ARG227      0.0489
    196  CD        20.5910  -19.7060    8.0130 C.3   227  ARG227      0.2205
    197  NE        19.9320  -20.0760    9.2700 N.pl3 227  ARG227     -0.0865
    198  CZ        18.7230  -20.6460    9.3520 C.cat 227  ARG227      0.5346
    199  NH1       18.0140  -20.9310    8.2520 N.pl3 227  ARG227      0.1354
    200  NH2       18.1290  -20.9720   10.5090 N.pl3 227  ARG227      0.1354
    201  N         18.3330   -9.7330    6.4390 N.3   232  GLY232     -0.1225
    202  CA        17.4750   -9.3040    7.5540 C.3   232  GLY232      0.1811
    203  C         16.4130   -8.3560    6.9850 C.2   232  GLY232      0.2280
    204  O         16.6820   -7.6000    6.0390 O.2   232  GLY232     -0.2866
@<TRIPOS>BOND
     1    79    78    2
     2    76    77    1
     3    78    77    1
     4    78    83   am
     5    88    89    1
     6    88    87    1
     7    93    91    1
     8    77    80    1
     9    84    83    1
    10    84    87    1
    11    84    85    1
    12    90    91    2
    13    90    89    1
    14    82    80    1
    15    97    96    2
    16    91    92    1
    17    86    85    2
    18    85    94   am
    19    80    81    1
    20    96    95    1
    21    94    95    1
    22    95    98    1
    23    59    57   ar
    24    98   100    1
    25    98    99    1
    26    67    65   am
    27    58    57   ar
    28    57    56    1
    29   193   192    2
    30   178   177   ar
    31   192   191    1
    32   166   164   ar
    33   166   165   ar
    34    99   101    1
    35   164   162   ar
    36   204   203    2
    37    65    64    1
    38    65    66    2
    39   179   177   ar
    40    56    55    1
    41   177   176    1
    42   165   163   ar
    43   201   202    1
    44    64    61    1
    45   194   191    1
    46   194   195    1
    47   191   190    1
    48   203   202    1
    49   162   161   ar
    50   162   160   ar
    51   175   176    1
    52   175   172    1
    53    55    52    1
    54   161   159   ar
    55   163   160   ar
    56    61    60    1
    57    61    62    1
    58   196   195    1
    59   196   197    1
    60   160   158   ar
    61    63    62    2
    62   199   198    1
    63    60    53   am
    64   174   173    2
    65    53    54    2
    66    53    52    1
    67    62    68   am
    68    52    51    1
    69   171   172    1
    70   171   169   am
    71   172   173    1
    72   159   158   ar
    73   173   180   am
    74   197   198    2
    75   198   200    1
    76   158   157    1
    77   168   169    1
    78   168   167    1
    79   156   155    2
    80   109   107   ar
    81   169   170    2
    82   108   107   ar
    83   107   106    1
    84    70    71    2
    85    70    69    1
    86    68    69    1
    87   106   103    1
    88   102   103    1
    89   155   167   am
    90   155   154    1
    91   103   104    1
    92   180   181    1
    93    69    72    1
    94   186   187    2
    95   186   185    1
    96   157   154    1
    97   181   182    1
    98    72    73    1
    99   151   152    1
   100   151   148    1
   101   183   182    2
   102   182   184   am
   103   154   153    1
   104   153   149   am
   105   184   185    1
   106   185   188    1
   107   104   110   am
   108   104   105    2
   109   110   111    1
   110    73    74    1
   111    73    75    1
   112   147   148    1
   113   147   142   am
   114   148   149    1
   115   149   150    2
   116    37    38    1
   117   113   112    2
   118   188   189    1
   119   114   111    1
   120   141   140    1
   121   141   142    1
   122   141   144    1
   123   111   112    1
   124    39    40    2
   125    39    38    1
   126   142   143    2
   127    38    41    1
   128   112   115   am
   129   146   144    1
   130   189   120    1
   131   145   144    1
   132    22    21    1
   133   115   116    1
   134    41    42    1
   135   116   119    1
   136   116   117    1
   137    42    43   ar
   138    42    44   ar
   139    19    21   ar
   140    19    17   ar
   141    47    44   ar
   142    47    49   ar
   143    43    45   ar
   144    44    46   ar
   145     7     9   ar
   146     7     6   ar
   147    21    20   ar
   148   120   119    1
   149     9    10   ar
   150    49    50   ar
   151    45    46   ar
   152    46    48   ar
   153    50    48   ar
   154   139   138    1
   155   117   118    2
   156   117   121   am
   157     6     5    1
   158     6     8   ar
   159     5     2    1
   160    17    16   ar
   161    10     8   ar
   162    20    18   ar
   163   135   138    1
   164   135   134    1
   165   135   136    1
   166   121   122    1
   167     1     2    1
   168   136   137    2
   169     2     3    1
   170    34    36   ar
   171    34    32   ar
   172    16    18   ar
   173    16    15    1
   174   122   125    1
   175   122   123    1
   176    36    35   ar
   177    31    32   ar
   178    31    29   ar
   179    32    30   ar
   180   125   126    1
   181     3     4    2
   182    15    12    1
   183   123   130   am
   184   123   124    2
   185    35    33   ar
   186    29    28   ar
   187    12    13    1
   188    12    11    1
   189   130   131    1
   190    30    33   ar
   191    30    28   ar
   192   128   127   ar
   193   126   127    1
   194    13    14    2
   195   132   131    1
   196   132   133    2
   197    28    27    1
   198   127   129   ar
   199    23    24    1
   200    27    24    1
   201    24    25    1
   202    25    26    2
