@<TRIPOS>MOLECULE
tmp/1aidB00.pdb
 82 78 0 0 0
SMALL
GASTEIGER

@<TRIPOS>ATOM
      1  N         66.2660   43.5600   10.6240 N.3    32  VAL32      -0.1245
      2  CA        65.5830   42.3570   11.0860 C.3    32  VAL32       0.1561
      3  C         66.6810   41.4400   11.5900 C.2    32  VAL32       0.2260
      4  O         67.5980   41.0850   10.8390 O.2    32  VAL32      -0.2867
      5  CB        64.8050   41.6050    9.9550 C.3    32  VAL32       0.0252
      6  CG1       63.9590   40.5360   10.6240 C.3    32  VAL32       0.0019
      7  CG2       63.8810   42.5130    9.1500 C.3    32  VAL32       0.0019
      8  N         56.3030   40.2340    7.8300 N.3    47  ILE47      -0.1231
      9  CA        57.1130   40.7170    6.7360 C.3    47  ILE47       0.1692
     10  C         57.0260   39.6810    5.6270 C.2    47  ILE47       0.2593
     11  O         57.3000   38.4920    5.8110 O.2    47  ILE47      -0.2718
     12  CB        58.5970   40.9880    7.2020 C.3    47  ILE47       0.0266
     13  CG1       59.1900   39.9700    8.1560 C.3    47  ILE47       0.0019
     14  CG2       58.5550   42.3450    7.8990 C.3    47  ILE47       0.0020
     15  CD1       60.6050   40.3760    8.6380 C.3    47  ILE47       0.0001
     16  N         56.4520   40.1510    4.5120 N.am   48  GLY48      -0.1942
     17  CA        56.2520   39.3320    3.3190 C.3    48  GLY48       0.2014
     18  C         57.4870   39.0770    2.4790 C.2    48  GLY48       0.2639
     19  O         58.4870   39.8290    2.4350 O.2    48  GLY48      -0.2714
     20  N         57.5030   37.9220    1.8220 N.am   49  GLY49      -0.1939
     21  CA        58.6230   37.5110    0.9910 C.3    49  GLY49       0.2014
     22  C         58.1010   36.6650   -0.1620 C.2    49  GLY49       0.2638
     23  O         56.9280   36.7790   -0.5330 O.2    49  GLY49      -0.2714
     24  N         58.9100   35.7510   -0.7150 N.am   50  ILE50      -0.1977
     25  CA        58.4580   34.9680   -1.8520 C.3    50  ILE50       0.1596
     26  C         57.4000   33.9800   -1.3990 C.2    50  ILE50       0.2287
     27  O         57.6910   33.0480   -0.6500 O.2    50  ILE50      -0.2864
     28  CB        59.6590   34.2350   -2.5090 C.3    50  ILE50       0.0276
     29  CG1       60.6070   35.2580   -3.1000 C.3    50  ILE50       0.0022
     30  CG2       59.1950   33.3310   -3.6320 C.3    50  ILE50       0.0022
     31  CD1       61.7800   34.6400   -3.8600 C.3    50  ILE50       0.0001
     32  N         56.2940   36.0330    7.3060 N.3    54  ILE54      -0.1245
     33  CA        56.8040   35.5360    8.5610 C.3    54  ILE54       0.1561
     34  C         56.5420   36.6010    9.6110 C.2    54  ILE54       0.2260
     35  O         56.5810   37.7940    9.3120 O.2    54  ILE54      -0.2867
     36  CB        58.2920   35.2020    8.3490 C.3    54  ILE54       0.0252
     37  CG1       58.2620   33.7420    7.9080 C.3    54  ILE54       0.0019
     38  CG2       59.1870   35.4150    9.5660 C.3    54  ILE54       0.0019
     39  CD1       59.6050   33.0720    7.6060 C.3    54  ILE54       0.0001
     40  N         57.3260   38.5330   13.1370 N.3    56  VAL56      -0.1245
     41  CA        58.4810   38.9630   13.9120 C.3    56  VAL56       0.1561
     42  C         57.9890   39.8590   15.0570 C.2    56  VAL56       0.2260
     43  O         56.7880   40.1680   15.1570 O.2    56  VAL56      -0.2867
     44  CB        59.5290   39.7490   13.0110 C.3    56  VAL56       0.0252
     45  CG1       60.2760   38.7890   12.1110 C.3    56  VAL56       0.0019
     46  CG2       58.8440   40.7700   12.1290 C.3    56  VAL56       0.0019
     47  N         62.4060   34.8400   13.1100 N.3    79  PRO79      -0.2102
     48  CA        63.1180   33.7380   12.5010 C.3    79  PRO79       0.1504
     49  C         63.7760   34.1340   11.1840 C.2    79  PRO79       0.2576
     50  O         63.4750   33.5400   10.1400 O.2    79  PRO79      -0.2718
     51  CB        61.9990   32.7110   12.4570 C.3    79  PRO79       0.0282
     52  CG        60.7630   33.5060   12.1360 C.3    79  PRO79       0.0208
     53  CD        60.9440   34.7440   12.9730 C.3    79  PRO79       0.0893
     54  N         64.6340   35.1470   11.1870 N.am   80  THR80      -0.1940
     55  CA        65.2580   35.5480    9.9490 C.3    80  THR80       0.2013
     56  C         66.4030   34.5580    9.7190 C.2    80  THR80       0.2484
     57  O         67.0180   34.0890   10.6870 O.2    80  THR80      -0.2729
     58  CB        65.7260   37.0020   10.1170 C.3    80  THR80       0.1807
     59  OG1       66.0540   37.4320    8.8020 O.3    80  THR80      -0.2208
     60  CG2       66.8860   37.1760   11.0760 C.3    80  THR80       0.0379
     61  N         66.7000   34.1420    8.4880 N.am   81  PRO81      -0.2715
     62  CA        67.9220   33.4290    8.1390 C.3    81  PRO81       0.1536
     63  C         69.2290   34.2080    8.1500 C.2    81  PRO81       0.2598
     64  O         70.3060   33.6240    8.0540 O.2    81  PRO81      -0.2715
     65  CB        67.5920   32.8590    6.7910 C.3    81  PRO81       0.0310
     66  CG        66.6010   33.8460    6.1980 C.3    81  PRO81       0.0237
     67  CD        65.7280   34.1780    7.3900 C.3    81  PRO81       0.0939
     68  N         68.9990   35.4850    7.9060 N.am   82  VAL82      -0.1978
     69  CA        70.1080   36.3730    7.7550 C.3    82  VAL82       0.1596
     70  C         69.7040   37.6270    8.4950 C.2    82  VAL82       0.2287
     71  O         68.5480   38.0670    8.5000 O.2    82  VAL82      -0.2864
     72  CB        70.3350   36.5300    6.2180 C.3    82  VAL82       0.0276
     73  CG1       69.1300   37.1250    5.4950 C.3    82  VAL82       0.0022
     74  CG2       71.6050   37.3440    6.0520 C.3    82  VAL82       0.0022
     75  N         69.7210   41.2810    8.9970 N.3    84  ILE84      -0.1245
     76  CA        69.6410   42.3850    8.0640 C.3    84  ILE84       0.1561
     77  C         69.7030   43.6890    8.8350 C.2    84  ILE84       0.2260
     78  O         68.9100   43.8820    9.7670 O.2    84  ILE84      -0.2867
     79  CB        68.2910   42.2930    7.2880 C.3    84  ILE84       0.0252
     80  CG1       68.1780   40.9980    6.5050 C.3    84  ILE84       0.0019
     81  CG2       68.1740   43.4790    6.3620 C.3    84  ILE84       0.0019
     82  CD1       69.3350   40.7320    5.5190 C.3    84  ILE84       0.0001
@<TRIPOS>BOND
     1    31    29    1
     2    30    28    1
     3    29    28    1
     4    28    25    1
     5    25    26    1
     6    25    24    1
     7    26    27    2
     8    24    22   am
     9    23    22    2
    10    22    21    1
    11    21    20    1
    12    20    18   am
    13    19    18    2
    14    18    17    1
    15    17    16    1
    16    16    10   am
    17    73    72    1
    18    82    80    1
    19    10    11    2
    20    10     9    1
    21    74    72    1
    22    66    65    1
    23    66    67    1
    24    72    69    1
    25    81    79    1
    26    80    79    1
    27     9    12    1
    28     9     8    1
    29    65    62    1
    30    12    14    1
    31    12    13    1
    32    79    76    1
    33    32    33    1
    34    67    61    1
    35    39    37    1
    36    69    68    1
    37    69    70    1
    38    68    63   am
    39    37    36    1
    40    64    63    2
    41    76    77    1
    42    76    75    1
    43    62    63    1
    44    62    61    1
    45    13    15    1
    46    36    33    1
    47    36    38    1
    48    61    56   am
    49    70    71    2
    50    33    34    1
    51    59    58    1
    52    77    78    2
    53     7     5    1
    54    35    34    2
    55    56    55    1
    56    56    57    2
    57    55    58    1
    58    55    54    1
    59     5     6    1
    60     5     2    1
    61    58    60    1
    62    50    49    2
    63     1     2    1
    64     4     3    2
    65     2     3    1
    66    49    54   am
    67    49    48    1
    68    45    44    1
    69    46    44    1
    70    52    51    1
    71    52    53    1
    72    51    48    1
    73    48    47    1
    74    53    47    1
    75    44    41    1
    76    40    41    1
    77    41    42    1
    78    42    43    2
