@<TRIPOS>MOLECULE
tmp/1aigB06.pdb
 166 162 0 0 0
SMALL
GASTEIGER

@<TRIPOS>ATOM
      1  N         61.6540  107.5280   31.3970 N.3   212  LEU212     -0.1231
      2  CA        61.5190  108.1070   30.0650 C.3   212  LEU212      0.1693
      3  C         62.5930  109.1880   29.8340 C.2   212  LEU212      0.2591
      4  O         63.2900  109.1280   28.8240 O.2   212  LEU212     -0.2718
      5  CB        60.1210  108.7240   29.9170 C.3   212  LEU212      0.0284
      6  CG        59.9100  109.8210   28.8810 C.3   212  LEU212      0.0019
      7  CD1       60.2190  109.2810   27.5140 C.3   212  LEU212      0.0001
      8  CD2       58.4890  110.3020   28.8960 C.3   212  LEU212      0.0001
      9  N         62.7860  110.1830   30.7090 N.am  213  LEU213     -0.1980
     10  CA        63.7570  111.2200   30.4380 C.3   213  LEU213      0.1596
     11  C         65.1640  110.6940   30.6100 C.2   213  LEU213      0.2287
     12  O         66.0330  111.1440   29.8960 O.2   213  LEU213     -0.2864
     13  CB        63.5110  112.4130   31.3710 C.3   213  LEU213      0.0297
     14  CG        64.2570  113.7560   31.2260 C.3   213  LEU213      0.0022
     15  CD1       63.9450  114.4020   29.8840 C.3   213  LEU213      0.0001
     16  CD2       63.8080  114.7060   32.3200 C.3   213  LEU213      0.0001
     17  N         66.0410  108.8940   27.5690 N.3   216  MET216     -0.1182
     18  CA        66.2020  109.9300   26.5620 C.3   216  MET216      0.1917
     19  C         67.5490  110.6430   26.7280 C.2   216  MET216      0.2634
     20  O         68.3640  110.6370   25.8000 O.2   216  MET216     -0.2714
     21  CB        65.0390  110.9550   26.6550 C.2   216  MET216      0.0083
     22  CG        63.7290  110.6300   25.9110 C.2   216  MET216      0.0282
     23  SD        62.3210  111.7490   26.2100 S.3   216  MET216     -0.1125
     24  CE        62.8850  113.3480   25.7030 C.3   216  MET216      0.0742
     25  N         67.8940  111.1470   27.9220 N.am  217  HIS217     -0.1973
     26  CA        69.1070  111.9380   28.1260 C.3   217  HIS217      0.1656
     27  C         70.3440  111.0560   28.0360 C.2   217  HIS217      0.2291
     28  O         71.3090  111.3940   27.3540 O.2   217  HIS217     -0.2864
     29  CB        69.0320  112.6430   29.4870 C.3   217  HIS217      0.0771
     30  CG        70.2300  113.5300   29.7170 C.ar  217  HIS217      0.0820
     31  ND1       70.6340  114.5280   28.9590 N.ar  217  HIS217     -0.2267
     32  CD2       71.1270  113.3850   30.7400 C.ar  217  HIS217      0.1154
     33  CE1       71.7410  114.9890   29.4730 C.ar  217  HIS217      0.1986
     34  NE2       72.0430  114.3000   30.5510 N.ar  217  HIS217     -0.2212
     35  N         70.8660  110.3070   24.4820 N.3   220  THR220     -0.1203
     36  CA        71.2620  111.4320   23.6450 C.3   220  THR220      0.1994
     37  C         72.7550  111.6750   23.7940 C.2   220  THR220      0.2617
     38  O         73.4720  111.8420   22.8030 O.2   220  THR220     -0.2717
     39  CB        70.5410  112.7360   24.0350 C.3   220  THR220      0.1784
     40  OG1       69.1590  112.4510   24.0530 O.3   220  THR220     -0.2211
     41  CG2       70.7890  113.8770   23.0510 C.3   220  THR220      0.0376
     42  N         73.2220  111.6500   25.0480 N.am  221  ILE221     -0.1979
     43  CA        74.6090  111.9200   25.3120 C.3   221  ILE221      0.1595
     44  C         75.4380  110.7980   24.7340 C.2   221  ILE221      0.2287
     45  O         76.4240  111.0980   24.0710 O.2   221  ILE221     -0.2864
     46  CB        74.8090  112.0680   26.8310 C.3   221  ILE221      0.0276
     47  CG1       74.0730  113.2940   27.3650 C.3   221  ILE221      0.0022
     48  CG2       76.2880  112.2060   27.1210 C.3   221  ILE221      0.0022
     49  CD1       74.4690  114.6650   26.7700 C.3   221  ILE221      0.0001
     50  N         76.1910  119.4330   21.7010 N.3   243  ALA243     -0.1245
     51  CA        75.0240  120.1210   22.2560 C.3   243  ALA243      0.1562
     52  C         74.0360  120.5960   21.2010 C.2   243  ALA243      0.2260
     53  O         72.8250  120.6750   21.4170 O.2   243  ALA243     -0.2867
     54  CB        75.4630  121.3320   23.0340 C.3   243  ALA243      0.0290
     55  N         72.4860  117.3800   19.5670 N.3   246  ALA246     -0.1231
     56  CA        71.6430  116.8080   20.6140 C.3   246  ALA246      0.1694
     57  C         70.3190  117.5670   20.6520 C.2   246  ALA246      0.2591
     58  O         69.2550  117.0050   20.4120 O.2   246  ALA246     -0.2718
     59  CB        72.2990  116.9320   21.9980 C.3   246  ALA246      0.0304
     60  N         70.3750  118.8740   20.8840 N.am  247  ALA247     -0.1980
     61  CA        69.1810  119.6660   20.8890 C.3   247  ALA247      0.1597
     62  C         68.4270  119.6030   19.5780 C.2   247  ALA247      0.2287
     63  O         67.2040  119.5730   19.6180 O.2   247  ALA247     -0.2864
     64  CB        69.5460  121.0820   21.1770 C.3   247  ALA247      0.0319
     65  N         66.0660  116.4030   19.0730 N.3   250  TRP250     -0.1241
     66  CA        64.8150  116.6290   19.7590 C.3   250  TRP250      0.1605
     67  C         64.0030  117.8140   19.2170 C.2   250  TRP250      0.2264
     68  O         62.7650  117.7620   19.2420 O.2   250  TRP250     -0.2867
     69  CB        65.1550  116.7380   21.2800 C.3   250  TRP250      0.0550
     70  CG        65.5090  115.3510   21.8700 C.ar  250  TRP250      0.0003
     71  CD1       66.7490  115.0610   22.3950 C.ar  250  TRP250      0.0946
     72  CD2       64.6670  114.2530   21.9250 C.ar  250  TRP250      0.0152
     73  NE1       66.6980  113.8150   22.7810 N.ar  250  TRP250     -0.2442
     74  CE2       65.4920  113.2930   22.5230 C.ar  250  TRP250      0.0810
     75  CE3       63.3470  113.9330   21.5520 C.ar  250  TRP250      0.0012
     76  CZ2       65.0010  112.0150   22.7510 C.ar  250  TRP250      0.0191
     77  CZ3       62.8670  112.6510   21.7840 C.ar  250  TRP250      0.0001
     78  CH2       63.6900  111.7010   22.3810 C.ar  250  TRP250      0.0015
     79  N         62.4700  116.0650   16.2860 N.3   253  THR253     -0.1203
     80  CA        61.6740  114.9010   16.6140 C.3   253  THR253      0.1994
     81  C         60.3230  115.2740   17.2310 C.2   253  THR253      0.2618
     82  O         59.2760  114.9130   16.6900 O.2   253  THR253     -0.2717
     83  CB        62.4760  114.0200   17.5660 C.3   253  THR253      0.1784
     84  OG1       63.7290  113.7900   16.9610 O.3   253  THR253     -0.2211
     85  CG2       61.8480  112.6630   17.7800 C.3   253  THR253      0.0376
     86  N         60.3080  116.0210   18.3440 N.am  254  MET254     -0.1965
     87  CA        59.0610  116.3690   19.0090 C.3   254  MET254      0.1736
     88  C         58.7510  117.8590   18.9900 C.2   254  MET254      0.2617
     89  O         57.7720  118.3440   19.5640 O.2   254  MET254     -0.2715
     90  CB        59.1120  115.8620   20.4290 C.3   254  MET254      0.0427
     91  CG        60.2530  116.4290   21.2160 C.3   254  MET254      0.0599
     92  SD        60.1680  115.8480   22.9180 S.3   254  MET254     -0.1393
     93  CE        61.6160  116.6450   23.5640 C.3   254  MET254      0.0692
     94  N         59.5840  118.6130   18.2730 N.am  255  GLY255     -0.1940
     95  CA        59.3020  120.0130   18.0290 C.3   255  GLY255      0.2014
     96  C         59.8120  120.9490   19.0840 C.2   255  GLY255      0.2639
     97  O         59.4650  122.1280   19.0000 O.2   255  GLY255     -0.2714
     98  N         60.6040  120.4970   20.0750 N.am  256  PHE256     -0.1959
     99  CA        61.0720  121.4840   21.0280 C.3   256  PHE256      0.1771
    100  C         62.3930  121.4480   21.7560 C.2   256  PHE256      0.2620
    101  O         62.5700  122.4370   22.4480 O.2   256  PHE256     -0.2715
    102  CB        59.9770  121.7190   22.1030 C.3   256  PHE256      0.0574
    103  CG        59.6880  120.6180   23.1010 C.ar  256  PHE256     -0.0200
    104  CD1       58.8430  119.5550   22.7480 C.ar  256  PHE256     -0.0042
    105  CD2       60.2430  120.7080   24.3820 C.ar  256  PHE256     -0.0042
    106  CE1       58.5420  118.5720   23.6860 C.ar  256  PHE256     -0.0003
    107  CE2       59.9350  119.7150   25.3140 C.ar  256  PHE256     -0.0003
    108  CZ        59.0860  118.6500   24.9670 C.ar  256  PHE256     -0.0000
    109  N         63.3580  120.5340   21.7300 N.am  257  ASN257     -0.1958
    110  CA        64.6510  120.7590   22.4010 C.3   257  ASN257      0.1819
    111  C         64.9060  121.5230   23.7380 C.2   257  ASN257      0.2621
    112  O         64.1630  122.2970   24.3570 O.2   257  ASN257     -0.2715
    113  CB        65.6120  121.3660   21.3580 C.3   257  ASN257      0.1195
    114  CG        65.5740  122.8770   21.2470 C.2   257  ASN257      0.2630
    115  OD1       64.7260  123.4010   20.5390 O.2   257  ASN257     -0.2716
    116  ND2       66.4260  123.6370   21.9390 N.am  257  ASN257     -0.0877
    117  N         66.1310  121.3080   24.1700 N.am  258  ALA258     -0.1963
    118  CA        66.5970  121.8970   25.3870 C.3   258  ALA258      0.1728
    119  C         68.0350  122.4010   25.1980 C.2   258  ALA258      0.2617
    120  O         68.5550  122.5650   24.0890 O.2   258  ALA258     -0.2715
    121  CB        66.4540  120.7900   26.4480 C.3   258  ALA258      0.0334
    122  N         68.6690  122.6310   26.3440 N.am  259  THR259     -0.1937
    123  CA        70.0340  123.0920   26.4750 C.3   259  THR259      0.2028
    124  C         70.8340  122.0640   27.2650 C.2   259  THR259      0.2642
    125  O         70.2750  121.1860   27.9290 O.2   259  THR259     -0.2714
    126  CB        69.8310  124.4790   27.1200 C.3   259  THR259      0.1808
    127  OG1       69.8210  125.2640   25.9380 O.3   259  THR259     -0.2208
    128  CG2       70.8230  125.0300   28.1220 C.3   259  THR259      0.0379
    129  N         72.1620  122.1160   27.1870 N.am  260  MET260     -0.1976
    130  CA        72.9920  121.1960   27.9490 C.3   260  MET260      0.1605
    131  C         72.9670  121.5310   29.4530 C.2   260  MET260      0.2287
    132  O         73.1720  120.6860   30.3270 O.2   260  MET260     -0.2864
    133  CB        74.3670  121.2800   27.3060 C.3   260  MET260      0.0413
    134  CG        75.2490  120.0570   27.5440 C.3   260  MET260      0.0598
    135  SD        74.7700  118.4050   26.9650 S.3   260  MET260     -0.1393
    136  CE        75.5620  118.4450   25.3870 C.3   260  MET260      0.0692
    137  N         68.7850  120.6850   30.3920 N.3   263  ILE263     -0.1245
    138  CA        68.2480  119.3310   30.4110 C.3   263  ILE263      0.1561
    139  C         68.4350  118.7500   31.8110 C.2   263  ILE263      0.2260
    140  O         67.6450  117.9190   32.2620 O.2   263  ILE263     -0.2867
    141  CB        68.9380  118.4510   29.3020 C.3   263  ILE263      0.0252
    142  CG1       68.2300  117.1270   29.1570 C.3   263  ILE263      0.0019
    143  CG2       70.3670  118.1740   29.6510 C.3   263  ILE263      0.0019
    144  CD1       66.7400  117.2710   28.8170 C.3   263  ILE263      0.0001
    145  N         65.4060  119.9210   33.8750 N.3   266  TRP266     -0.1241
    146  CA        64.3130  119.0180   33.5500 C.3   266  TRP266      0.1605
    147  C         64.4780  117.7270   34.3270 C.2   266  TRP266      0.2264
    148  O         63.5220  117.2590   34.9350 O.2   266  TRP266     -0.2867
    149  CB        64.2870  118.6380   32.0690 C.3   266  TRP266      0.0550
    150  CG        63.5460  119.6080   31.1600 C.ar  266  TRP266      0.0003
    151  CD1       64.2050  120.3310   30.2030 C.ar  266  TRP266      0.0946
    152  CD2       62.2070  119.8660   31.1680 C.ar  266  TRP266      0.0152
    153  NE1       63.2850  121.0480   29.6000 N.ar  266  TRP266     -0.2442
    154  CE2       62.0970  120.8050   30.1460 C.ar  266  TRP266      0.0810
    155  CE3       61.0870  119.4590   31.8680 C.ar  266  TRP266      0.0012
    156  CZ2       60.8800  121.3610   29.8030 C.ar  266  TRP266      0.0191
    157  CZ3       59.8580  120.0120   31.5340 C.ar  266  TRP266      0.0001
    158  CH2       59.7550  120.9560   30.5130 C.ar  266  TRP266      0.0015
    159  N         61.8510  116.4570   37.1680 N.3   270  MET270     -0.1245
    160  CA        61.1980  115.2250   36.7940 C.3   270  MET270      0.1570
    161  C         61.4160  114.1750   37.8890 C.2   270  MET270      0.2261
    162  O         60.4850  113.4530   38.2400 O.2   270  MET270     -0.2867
    163  CB        61.7850  114.7740   35.4650 C.3   270  MET270      0.0387
    164  CG        61.2960  113.4090   35.0170 C.3   270  MET270      0.0595
    165  SD        59.5100  113.3280   34.7260 S.3   270  MET270     -0.1393
    166  CE        59.5470  113.6740   32.9920 C.3   270  MET270      0.0692
@<TRIPOS>BOND
     1    79    80    1
     2    80    81    1
     3    80    83    1
     4    82    81    2
     5    84    83    1
     6    81    86   am
     7    83    85    1
     8    95    94    1
     9    95    96    1
    10    94    88   am
    11    86    87    1
    12    88    87    1
    13    88    89    2
    14    97    96    2
    15    87    90    1
    16    65    66    1
    17    96    98   am
    18    67    68    2
    19    67    66    1
    20    55    56    1
    21    62    63    2
    22    62    61    1
    23    66    69    1
    24    98    99    1
    25    58    57    2
    26    90    91    1
    27   115   114    2
    28    56    57    1
    29    56    59    1
    30    57    60   am
    31    60    61    1
    32    61    64    1
    33    99   100    1
    34    99   102    1
    35    52    53    2
    36    52    51    1
    37    91    92    1
    38   114   113    1
    39   114   116   am
    40    69    70    1
    41   113   110    1
    42    75    77   ar
    43    75    72   ar
    44    50    51    1
    45   109   100   am
    46   109   110    1
    47   100   101    2
    48    77    78   ar
    49    70    72   ar
    50    70    71   ar
    51    72    74   ar
    52   102   103    1
    53    51    54    1
    54    78    76   ar
    55    71    73   ar
    56   110   111    1
    57    74    76   ar
    58    74    73   ar
    59   104   103   ar
    60   104   106   ar
    61    38    37    2
    62    92    93    1
    63    41    39    1
    64   103   105   ar
    65    36    37    1
    66    36    39    1
    67    36    35    1
    68   106   108   ar
    69   111   117   am
    70   111   112    2
    71    37    42   am
    72    39    40    1
    73    45    44    2
    74   120   119    2
    75   117   118    1
    76   105   107   ar
    77    44    43    1
    78   108   107   ar
    79    42    43    1
    80   119   118    1
    81   119   122   am
    82    43    46    1
    83   118   121    1
    84   136   135    1
    85    24    23    1
    86    20    19    2
    87    22    23    1
    88    22    21    2
    89   127   126    1
    90   122   123    1
    91   123   126    1
    92   123   124    1
    93    18    21    1
    94    18    19    1
    95    18    17    1
    96    19    25   am
    97    49    47    1
    98    46    48    1
    99    46    47    1
   100   135   134    1
   101   126   128    1
   102   129   124   am
   103   129   130    1
   104   124   125    2
   105   133   134    1
   106   133   130    1
   107    28    27    2
   108     7     6    1
   109    25    26    1
   110   130   131    1
   111    27    26    1
   112    26    29    1
   113   144   142    1
   114     4     3    2
   115     6     8    1
   116     6     5    1
   117    31    33   ar
   118    31    30   ar
   119   142   141    1
   120   141   143    1
   121   141   138    1
   122   131   132    2
   123    33    34   ar
   124    29    30    1
   125   153   154   ar
   126   153   151   ar
   127    30    32   ar
   128   156   154   ar
   129   156   158   ar
   130     3     2    1
   131     3     9   am
   132    15    14    1
   133    12    11    2
   134     5     2    1
   135     2     1    1
   136   154   152   ar
   137   151   150   ar
   138   137   138    1
   139   138   139    1
   140    10    11    1
   141    10     9    1
   142    10    13    1
   143   158   157   ar
   144    34    32   ar
   145   150   152   ar
   146   150   149    1
   147   152   155   ar
   148    14    13    1
   149    14    16    1
   150   157   155   ar
   151   139   140    2
   152   149   146    1
   153   166   165    1
   154   146   145    1
   155   146   147    1
   156   147   148    2
   157   165   164    1
   158   164   163    1
   159   163   160    1
   160   160   159    1
   161   160   161    1
   162   161   162    2
