@<TRIPOS>MOLECULE
tmp/1aijB09.pdb
 64 60 0 0 0
SMALL
GASTEIGER

@<TRIPOS>ATOM
      1  N         90.9520  109.5150   53.3080 N.3    30  SER30      -0.1202
      2  CA        91.6570  108.2480   53.3910 C.3    30  SER30       0.2020
      3  C         92.6550  108.1330   52.2390 C.2    30  SER30       0.2619
      4  O         92.8470  109.0550   51.4350 O.2    30  SER30      -0.2717
      5  CB        90.6560  107.0880   53.3110 C.3    30  SER30       0.2103
      6  OG        90.1110  106.8400   52.0060 O.3    30  SER30      -0.2182
      7  N         93.2720  106.9510   52.1240 N.am   31  GLY31      -0.1942
      8  CA        94.1310  106.6450   50.9960 C.3    31  GLY31       0.2014
      9  C         93.2770  106.0800   49.8670 C.2    31  GLY31       0.2639
     10  O         92.0590  105.9030   50.0120 O.2    31  GLY31      -0.2714
     11  N         93.9210  105.8060   48.7380 N.am   32  VAL32      -0.1963
     12  CA        93.2730  105.2390   47.5650 C.3    32  VAL32       0.1727
     13  C         93.0230  103.7660   47.8450 C.2    32  VAL32       0.2617
     14  O         93.8160  103.1220   48.5360 O.2    32  VAL32      -0.2715
     15  CB        94.1920  105.4170   46.3380 C.3    32  VAL32       0.0290
     16  CG1       93.5690  104.8650   45.0670 C.3    32  VAL32       0.0023
     17  CG2       94.4080  106.9040   46.1350 C.3    32  VAL32       0.0023
     18  N         91.8890  103.2610   47.3720 N.am   33  GLY33      -0.1941
     19  CA        91.5560  101.8610   47.5020 C.3    33  GLY33       0.1998
     20  C         92.1380  101.1470   46.2880 C.2    33  GLY33       0.2480
     21  O         92.9750  101.7040   45.5650 O.2    33  GLY33      -0.2729
     22  N         91.7730   99.8960   46.0090 N.am   34  PRO34      -0.2726
     23  CA        92.1900   99.2210   44.7900 C.3    34  PRO34       0.1402
     24  C         91.5910   99.8220   43.5210 C.2    34  PRO34       0.2269
     25  O         90.7170  100.6920   43.5550 O.2    34  PRO34      -0.2865
     26  CB        91.7940   97.7750   45.0460 C.3    34  PRO34       0.0296
     27  CG        90.6200   97.8700   45.9930 C.3    34  PRO34       0.0237
     28  CD        91.0570   99.0040   46.9110 C.3    34  PRO34       0.0939
     29  N         84.9600   97.2500   37.0220 N.3    39  LEU39      -0.1245
     30  CA        84.2890   98.5430   36.9680 C.3    39  LEU39       0.1561
     31  C         84.7880   99.3740   35.8090 C.2    39  LEU39       0.2260
     32  O         83.9990  100.0070   35.1110 O.2    39  LEU39      -0.2867
     33  CB        84.5190   99.3400   38.2360 C.3    39  LEU39       0.0270
     34  CG        83.9160   98.7880   39.5140 C.3    39  LEU39       0.0019
     35  CD1       84.2140   99.7610   40.6280 C.3    39  LEU39       0.0001
     36  CD2       82.4120   98.5950   39.3730 C.3    39  LEU39       0.0001
     37  N         88.9550  103.2040   43.0300 N.3    47  LEU47      -0.1231
     38  CA        88.1370  103.1930   44.2260 C.3    47  LEU47       0.1693
     39  C         88.8230  104.0870   45.2480 C.2    47  LEU47       0.2592
     40  O         90.0490  104.0390   45.3850 O.2    47  LEU47      -0.2718
     41  CB        88.0360  101.7770   44.7580 C.3    47  LEU47       0.0284
     42  CG        86.8220  100.8900   44.4800 C.3    47  LEU47       0.0019
     43  CD1       86.2680  101.0630   43.0890 C.3    47  LEU47       0.0001
     44  CD2       87.2740   99.4620   44.6690 C.3    47  LEU47       0.0001
     45  N         88.1150  104.9410   45.9780 N.am   48  GLY48      -0.1957
     46  CA        88.7160  105.7910   46.9960 C.3    48  GLY48       0.1869
     47  C         89.4010  107.0190   46.3990 C.2    48  GLY48       0.2309
     48  O         89.4450  107.1540   45.1640 O.2    48  GLY48      -0.2863
     49  N         88.1170  108.3890   50.4010 N.3    50  ILE50      -0.1245
     50  CA        86.8280  108.8350   50.8980 C.3    50  ILE50       0.1561
     51  C         87.0920  109.8240   52.0320 C.2    50  ILE50       0.2260
     52  O         88.1640  109.7730   52.6480 O.2    50  ILE50      -0.2867
     53  CB        86.0170  107.5670   51.3360 C.3    50  ILE50       0.0252
     54  CG1       84.5990  107.9990   51.7140 C.3    50  ILE50       0.0019
     55  CG2       86.7140  106.8280   52.4700 C.3    50  ILE50       0.0019
     56  CD1       83.6510  106.8340   52.0330 C.3    50  ILE50       0.0001
     57  N         86.2570  111.2170   55.7800 N.3    52  LEU52      -0.1245
     58  CA        85.6310  110.6290   56.9440 C.3    52  LEU52       0.1561
     59  C         85.7890  111.5710   58.1120 C.2    52  LEU52       0.2260
     60  O         86.5760  111.3440   59.0300 O.2    52  LEU52      -0.2867
     61  CB        86.2910  109.2810   57.2450 C.3    52  LEU52       0.0270
     62  CG        86.1390  108.1490   56.2250 C.3    52  LEU52       0.0019
     63  CD1       87.2940  107.1650   56.4010 C.3    52  LEU52       0.0001
     64  CD2       84.7390  107.5320   56.3550 C.3    52  LEU52       0.0001
@<TRIPOS>BOND
     1    32    31    2
     2    31    30    1
     3    30    29    1
     4    30    33    1
     5    33    34    1
     6    36    34    1
     7    34    35    1
     8    37    38    1
     9    43    42    1
    10    24    25    2
    11    24    23    1
    12    38    41    1
    13    38    39    1
    14    42    44    1
    15    42    41    1
    16    23    26    1
    17    23    22    1
    18    26    27    1
    19    16    15    1
    20    48    47    2
    21    39    40    2
    22    39    45   am
    23    21    20    2
    24    45    46    1
    25    27    28    1
    26    22    20   am
    27    22    28    1
    28    17    15    1
    29    20    19    1
    30    15    12    1
    31    47    46    1
    32    18    19    1
    33    18    13   am
    34    12    13    1
    35    12    11    1
    36    13    14    2
    37    11     9   am
    38     9    10    2
    39     9     8    1
    40    49    50    1
    41    50    53    1
    42    50    51    1
    43     8     7    1
    44    53    54    1
    45    53    55    1
    46     4     3    2
    47    54    56    1
    48     6     5    1
    49    51    52    2
    50     7     3   am
    51     3     2    1
    52     1     2    1
    53     5     2    1
    54    57    58    1
    55    62    64    1
    56    62    63    1
    57    62    61    1
    58    58    61    1
    59    58    59    1
    60    59    60    2
