@<TRIPOS>MOLECULE
tmp/1aijB08.pdb
 162 157 0 0 0
SMALL
GASTEIGER

@<TRIPOS>ATOM
      1  N         62.1580  107.7560   31.4180 N.3   214  LEU214     -0.1231
      2  CA        62.0620  108.2930   30.0640 C.3   214  LEU214      0.1693
      3  C         63.2080  109.2720   29.8140 C.2   214  LEU214      0.2591
      4  O         63.9420  109.1700   28.8280 O.2   214  LEU214     -0.2718
      5  CB        60.7140  109.0150   29.8890 C.3   214  LEU214      0.0284
      6  CG        60.5300  110.0650   28.8030 C.3   214  LEU214      0.0019
      7  CD1       60.4530  109.4430   27.4570 C.3   214  LEU214      0.0001
      8  CD2       59.2450  110.7850   29.0320 C.3   214  LEU214      0.0001
      9  N         63.3840  110.2110   30.7410 N.am  215  LEU215     -0.1980
     10  CA        64.3690  111.2560   30.6080 C.3   215  LEU215      0.1596
     11  C         65.7800  110.7390   30.8050 C.2   215  LEU215      0.2287
     12  O         66.6570  111.1940   30.0680 O.2   215  LEU215     -0.2864
     13  CB        64.0980  112.3780   31.6060 C.3   215  LEU215      0.0297
     14  CG        64.9040  113.6590   31.4250 C.3   215  LEU215      0.0022
     15  CD1       64.7100  114.2210   30.0140 C.3   215  LEU215      0.0001
     16  CD2       64.4730  114.6450   32.4850 C.3   215  LEU215      0.0001
     17  N         66.5480  108.9680   27.6020 N.3   218  MET218     -0.1230
     18  CA        66.7840  109.9970   26.6020 C.3   218  MET218      0.1702
     19  C         68.1240  110.7120   26.7700 C.2   218  MET218      0.2592
     20  O         68.9030  110.7890   25.8180 O.2   218  MET218     -0.2718
     21  CB        65.6630  111.0370   26.6500 C.3   218  MET218      0.0401
     22  CG        64.3390  110.6480   25.9950 C.3   218  MET218      0.0596
     23  SD        63.0020  111.7440   26.5330 S.3   218  MET218     -0.1393
     24  CE        63.4170  113.2740   25.7500 C.3   218  MET218      0.0692
     25  N         68.4570  111.2240   27.9540 N.am  219  HIS219     -0.1976
     26  CA        69.6810  111.9750   28.1710 C.3   219  HIS219      0.1656
     27  C         70.9110  111.0940   28.0150 C.2   219  HIS219      0.2291
     28  O         71.8350  111.4770   27.2840 O.2   219  HIS219     -0.2864
     29  CB        69.6660  112.6160   29.5640 C.3   219  HIS219      0.0771
     30  CG        70.8550  113.5560   29.7670 C.ar  219  HIS219      0.0820
     31  ND1       71.3530  114.4280   28.9040 N.ar  219  HIS219     -0.2267
     32  CD2       71.6200  113.6130   30.9100 C.ar  219  HIS219      0.1154
     33  CE1       72.3750  115.0050   29.4660 C.ar  219  HIS219      0.1986
     34  NE2       72.5330  114.5140   30.6640 N.ar  219  HIS219     -0.2212
     35  N         71.3930  110.2760   24.3550 N.3   222  THR222     -0.1203
     36  CA        71.7990  111.4370   23.5820 C.3   222  THR222      0.1994
     37  C         73.2950  111.6240   23.7860 C.2   222  THR222      0.2617
     38  O         74.0400  111.6920   22.8020 O.2   222  THR222     -0.2717
     39  CB        71.0370  112.7150   24.0460 C.3   222  THR222      0.1784
     40  OG1       69.6440  112.5030   23.8370 O.3   222  THR222     -0.2211
     41  CG2       71.4400  113.9480   23.2590 C.3   222  THR222      0.0376
     42  N         73.7590  111.6030   25.0420 N.am  223  ILE223     -0.1979
     43  CA        75.1610  111.8590   25.3200 C.3   223  ILE223      0.1595
     44  C         76.0680  110.8120   24.7060 C.2   223  ILE223      0.2287
     45  O         77.0640  111.1860   24.0650 O.2   223  ILE223     -0.2864
     46  CB        75.3470  111.9560   26.8370 C.3   223  ILE223      0.0276
     47  CG1       74.6190  113.2140   27.3240 C.3   223  ILE223      0.0022
     48  CG2       76.8270  112.0240   27.2080 C.3   223  ILE223      0.0022
     49  CD1       75.0580  114.5640   26.6950 C.3   223  ILE223      0.0001
     50  N         76.8880  119.4990   21.6830 N.3   245  ALA245     -0.1245
     51  CA        75.7210  120.1820   22.2230 C.3   245  ALA245      0.1562
     52  C         74.7430  120.6510   21.1490 C.2   245  ALA245      0.2260
     53  O         73.5240  120.6090   21.3490 O.2   245  ALA245     -0.2867
     54  CB        76.1500  121.4000   23.0160 C.3   245  ALA245      0.0290
     55  N         73.0100  117.4490   19.6520 N.3   248  ALA248     -0.1231
     56  CA        72.1330  116.9150   20.6800 C.3   248  ALA248      0.1694
     57  C         70.8320  117.7270   20.7510 C.2   248  ALA248      0.2591
     58  O         69.7250  117.1760   20.7150 O.2   248  ALA248     -0.2718
     59  CB        72.8440  116.9700   22.0240 C.3   248  ALA248      0.0304
     60  N         70.9480  119.0600   20.7890 N.am  249  ALA249     -0.1980
     61  CA        69.7970  119.9490   20.8080 C.3   249  ALA249      0.1597
     62  C         68.9250  119.7920   19.5630 C.2   249  ALA249      0.2287
     63  O         67.7010  119.6740   19.6560 O.2   249  ALA249     -0.2864
     64  CB        70.2700  121.3910   20.8950 C.3   249  ALA249      0.0319
     65  N         66.5850  116.4910   19.1920 N.3   252  TRP252     -0.1241
     66  CA        65.3280  116.6920   19.8660 C.3   252  TRP252      0.1605
     67  C         64.4690  117.7950   19.2880 C.2   252  TRP252      0.2264
     68  O         63.2630  117.5760   19.1820 O.2   252  TRP252     -0.2867
     69  CB        65.6300  116.9180   21.3310 C.3   252  TRP252      0.0550
     70  CG        66.1200  115.5980   21.9200 C.ar  252  TRP252      0.0003
     71  CD1       67.4040  115.4470   22.3740 C.ar  252  TRP252      0.0946
     72  CD2       65.3790  114.4510   22.0410 C.ar  252  TRP252      0.0152
     73  NE1       67.4860  114.2110   22.7900 N.ar  252  TRP252     -0.2442
     74  CE2       66.3160  113.5790   22.6140 C.ar  252  TRP252      0.0810
     75  CE3       64.0850  114.0100   21.7550 C.ar  252  TRP252      0.0012
     76  CZ2       65.9720  112.2600   22.9080 C.ar  252  TRP252      0.0191
     77  CZ3       63.7430  112.6900   22.0460 C.ar  252  TRP252      0.0001
     78  CH2       64.6770  111.8240   22.6180 C.ar  252  TRP252      0.0015
     79  N         62.9790  116.1840   16.2610 N.3   255  THR255     -0.1203
     80  CA        62.0790  115.1170   16.6490 C.3   255  THR255      0.1994
     81  C         60.7650  115.6270   17.2510 C.2   255  THR255      0.2617
     82  O         59.6750  115.3050   16.7800 O.2   255  THR255     -0.2717
     83  CB        62.8320  114.2090   17.6460 C.3   255  THR255      0.1784
     84  OG1       63.8340  113.5520   16.8850 O.3   255  THR255     -0.2211
     85  CG2       61.9470  113.2020   18.3620 C.3   255  THR255      0.0376
     86  N         60.8350  116.4330   18.3030 N.am  256  MET256     -0.1979
     87  CA        59.6640  116.8340   19.0430 C.3   256  MET256      0.1605
     88  C         59.4610  118.3370   19.1750 C.2   256  MET256      0.2287
     89  O         58.7500  118.7920   20.0730 O.2   256  MET256     -0.2864
     90  CB        59.7320  116.1670   20.4300 C.3   256  MET256      0.0413
     91  CG        60.9070  116.5870   21.2830 C.3   256  MET256      0.0598
     92  SD        60.7080  116.0910   23.0020 S.3   256  MET256     -0.1393
     93  CE        62.2100  116.8030   23.5930 C.3   256  MET256      0.0692
     94  N         61.0320  121.0130   20.4360 N.3   258  PHE258     -0.1227
     95  CA        61.7290  121.8890   21.3700 C.3   258  PHE258      0.1736
     96  C         62.9450  121.1350   21.8870 C.2   258  PHE258      0.2595
     97  O         63.0790  119.9230   21.6690 O.2   258  PHE258     -0.2718
     98  CB        60.8210  122.2910   22.5450 C.3   258  PHE258      0.0547
     99  CG        60.4190  121.1940   23.5250 C.ar  258  PHE258     -0.0202
    100  CD1       59.6520  120.0960   23.1030 C.ar  258  PHE258     -0.0042
    101  CD2       60.8270  121.3040   24.8580 C.ar  258  PHE258     -0.0042
    102  CE1       59.2990  119.1120   24.0190 C.ar  258  PHE258     -0.0003
    103  CE2       60.4670  120.3110   25.7680 C.ar  258  PHE258     -0.0003
    104  CZ        59.7060  119.2180   25.3520 C.ar  258  PHE258     -0.0000
    105  N         63.8300  121.8100   22.6050 N.am  259  ASN259     -0.1960
    106  CA        65.0770  121.2100   23.0430 C.3   259  ASN259      0.1819
    107  C         65.6190  121.8960   24.2850 C.2   259  ASN259      0.2621
    108  O         65.0900  122.8940   24.7840 O.2   259  ASN259     -0.2715
    109  CB        66.1340  121.2930   21.9250 C.3   259  ASN259      0.1195
    110  CG        66.4630  122.7150   21.4800 C.2   259  ASN259      0.2630
    111  OD1       65.8770  123.2310   20.5310 O.2   259  ASN259     -0.2716
    112  ND2       67.3810  123.4120   22.1290 N.am  259  ASN259     -0.0877
    113  N         66.7180  121.3370   24.7690 N.am  260  ALA260     -0.1963
    114  CA        67.3890  121.8180   25.9610 C.3   260  ALA260      0.1728
    115  C         68.7520  122.3860   25.5670 C.2   260  ALA260      0.2617
    116  O         69.1060  122.4050   24.3760 O.2   260  ALA260     -0.2715
    117  CB        67.5710  120.6500   26.9380 C.3   260  ALA260      0.0334
    118  N         69.4930  122.8580   26.5650 N.am  261  THR261     -0.1937
    119  CA        70.8700  123.3170   26.4490 C.3   261  THR261      0.2028
    120  C         71.6480  122.3480   27.3370 C.2   261  THR261      0.2642
    121  O         71.0480  121.7180   28.2320 O.2   261  THR261     -0.2714
    122  CB        71.0420  124.7320   26.9960 C.3   261  THR261      0.1808
    123  OG1       70.4250  124.7580   28.2760 O.3   261  THR261     -0.2208
    124  CG2       70.4240  125.7760   26.1050 C.3   261  THR261      0.0379
    125  N         72.9710  122.2740   27.2040 N.am  262  MET262     -0.1976
    126  CA        73.7850  121.3300   27.9510 C.3   262  MET262      0.1605
    127  C         73.6600  121.5890   29.4500 C.2   262  MET262      0.2287
    128  O         73.6760  120.6520   30.2570 O.2   262  MET262     -0.2864
    129  CB        75.2170  121.4720   27.4430 C.3   262  MET262      0.0413
    130  CG        76.1690  120.3490   27.8030 C.3   262  MET262      0.0598
    131  SD        75.6910  118.6910   27.2500 S.3   262  MET262     -0.1393
    132  CE        76.3440  118.5360   25.6180 C.3   262  MET262      0.0692
    133  N         69.3340  120.7980   30.4900 N.3   265  ILE265     -0.1245
    134  CA        68.8300  119.4370   30.6180 C.3   265  ILE265      0.1561
    135  C         69.0780  118.8400   32.0030 C.2   265  ILE265      0.2260
    136  O         68.3020  117.9960   32.4560 O.2   265  ILE265     -0.2867
    137  CB        69.4590  118.5670   29.4960 C.3   265  ILE265      0.0252
    138  CG1       68.8290  117.1900   29.4910 C.3   265  ILE265      0.0019
    139  CG2       70.9590  118.4650   29.6890 C.3   265  ILE265      0.0019
    140  CD1       67.3050  117.2000   29.2980 C.3   265  ILE265      0.0001
    141  N         66.0610  119.9340   34.1360 N.3   268  TRP268     -0.1241
    142  CA        64.9420  119.0560   33.8260 C.3   268  TRP268      0.1605
    143  C         65.1460  117.7450   34.5810 C.2   268  TRP268      0.2264
    144  O         64.2100  117.2450   35.2060 O.2   268  TRP268     -0.2867
    145  CB        64.8620  118.7360   32.3330 C.3   268  TRP268      0.0550
    146  CG        64.2010  119.7780   31.4360 C.ar  268  TRP268      0.0003
    147  CD1       64.9480  120.5540   30.5870 C.ar  268  TRP268      0.0946
    148  CD2       62.8490  120.0190   31.3170 C.ar  268  TRP268      0.0152
    149  NE1       64.0810  121.2780   29.9200 N.ar  268  TRP268     -0.2442
    150  CE2       62.8320  121.0020   30.3160 C.ar  268  TRP268      0.0810
    151  CE3       61.6460  119.5740   31.8730 C.ar  268  TRP268      0.0012
    152  CZ2       61.6290  121.5500   29.8600 C.ar  268  TRP268      0.0191
    153  CZ3       60.4400  120.1220   31.4170 C.ar  268  TRP268      0.0001
    154  CH2       60.4300  121.1030   30.4180 C.ar  268  TRP268      0.0015
    155  N         62.6840  116.4630   37.5030 N.3   272  MET272     -0.1245
    156  CA        61.9120  115.2690   37.1790 C.3   272  MET272      0.1570
    157  C         62.0690  114.2620   38.3010 C.2   272  MET272      0.2261
    158  O         61.0790  113.8360   38.8860 O.2   272  MET272     -0.2867
    159  CB        62.4190  114.6530   35.8860 C.3   272  MET272      0.0387
    160  CG        61.7110  113.4070   35.3880 C.3   272  MET272      0.0595
    161  SD        59.9800  113.6120   34.8830 S.3   272  MET272     -0.1393
    162  CE        60.1250  114.1260   33.1940 C.3   272  MET272      0.0692
@<TRIPOS>BOND
     1    79    80    1
     2    80    81    1
     3    80    83    1
     4    82    81    2
     5    84    83    1
     6    81    86   am
     7    83    85    1
     8    86    87    1
     9    87    88    1
    10    87    90    1
    11    88    89    2
    12    68    67    2
    13    65    66    1
    14    67    66    1
    15    62    63    2
    16    62    61    1
    17    55    56    1
    18    66    69    1
    19    90    91    1
    20    94    95    1
    21   111   110    2
    22    56    57    1
    23    56    59    1
    24    58    57    2
    25    57    60   am
    26    60    61    1
    27    61    64    1
    28    52    53    2
    29    52    51    1
    30    91    92    1
    31    69    70    1
    32    95    96    1
    33    95    98    1
    34   110   109    1
    35   110   112   am
    36    97    96    2
    37    50    51    1
    38    75    72   ar
    39    75    77   ar
    40    96   105   am
    41    70    72   ar
    42    70    71   ar
    43   109   106    1
    44    72    74   ar
    45    77    78   ar
    46    51    54    1
    47    71    73   ar
    48    98    99    1
    49   105   106    1
    50    74    73   ar
    51    74    76   ar
    52    78    76   ar
    53    38    37    2
    54    92    93    1
    55   106   107    1
    56   100    99   ar
    57   100   102   ar
    58    41    39    1
    59    99   101   ar
    60    36    37    1
    61    36    39    1
    62    36    35    1
    63    37    42   am
    64    40    39    1
    65   102   104   ar
    66    45    44    2
    67   107   113   am
    68   107   108    2
    69   116   115    2
    70    44    43    1
    71   113   114    1
    72   101   103   ar
    73    42    43    1
    74    43    46    1
    75   104   103   ar
    76   115   114    1
    77   115   118   am
    78   132   131    1
    79    24    23    1
    80    20    19    2
    81   114   117    1
    82    22    23    1
    83    22    21    1
    84   124   122    1
    85   119   118    1
    86   119   122    1
    87   119   120    1
    88    18    21    1
    89    18    19    1
    90    18    17    1
    91    49    47    1
    92    19    25   am
    93    46    48    1
    94    46    47    1
    95   122   123    1
    96   125   120   am
    97   125   126    1
    98   131   130    1
    99    28    27    2
   100   120   121    2
   101   129   130    1
   102   129   126    1
   103     7     6    1
   104   126   127    1
   105    25    26    1
   106    27    26    1
   107    26    29    1
   108     6     8    1
   109     6     5    1
   110     4     3    2
   111    31    33   ar
   112    31    30   ar
   113   140   138    1
   114   127   128    2
   115    33    34   ar
   116   138   137    1
   117   137   139    1
   118   137   134    1
   119    29    30    1
   120    30    32   ar
   121     3     2    1
   122     3     9   am
   123   152   150   ar
   124   152   154   ar
   125     5     2    1
   126   149   150   ar
   127   149   147   ar
   128    15    14    1
   129     2     1    1
   130    12    11    2
   131   150   148   ar
   132   154   153   ar
   133   133   134    1
   134   147   146   ar
   135    10     9    1
   136    10    11    1
   137    10    13    1
   138   134   135    1
   139    34    32   ar
   140   148   146   ar
   141   148   151   ar
   142   153   151   ar
   143    14    13    1
   144    14    16    1
   145   146   145    1
   146   135   136    2
   147   145   142    1
   148   162   161    1
   149   142   141    1
   150   142   143    1
   151   143   144    2
   152   161   160    1
   153   160   159    1
   154   159   156    1
   155   156   155    1
   156   156   157    1
   157   157   158    2
