@<TRIPOS>MOLECULE
tmp/1aimA00.pdb
 148 143 0 0 0
SMALL
GASTEIGER

@<TRIPOS>ATOM
      1  N        111.1530   17.0090   -9.1660 N.3    19  GLN19      -0.1245
      2  CA       110.7980   17.9430  -10.2210 C.3    19  GLN19       0.1566
      3  C        111.3740   19.3460  -10.0600 C.2    19  GLN19       0.2260
      4  O        111.4380   20.1280  -11.0230 O.2    19  GLN19      -0.2867
      5  CB       109.2860   18.0150  -10.3340 C.3    19  GLN19       0.0367
      6  CG       108.5680   18.5730   -9.1360 C.3    19  GLN19       0.0905
      7  CD       107.0800   18.5490   -9.3830 C.2    19  GLN19       0.2608
      8  OE1      106.4190   19.5530   -9.6350 O.2    19  GLN19      -0.2717
      9  NE2      106.4850   17.3700   -9.3910 N.am   19  GLN19      -0.0878
     10  N        106.8880   23.0470  -13.0470 N.3    23  GLY23      -0.1210
     11  CA       105.5840   22.4230  -12.8580 C.3    23  GLY23       0.1956
     12  C        105.4400   21.1710  -13.7480 C.2    23  GLY23       0.2613
     13  O        104.5580   21.0980  -14.5950 O.2    23  GLY23      -0.2717
     14  N        106.3020   20.1710  -13.5560 N.am   24  SER24      -0.1938
     15  CA       106.3980   18.9910  -14.3900 C.3    24  SER24       0.2055
     16  C        105.8340   17.7120  -13.7810 C.2    24  SER24       0.2643
     17  O        106.0830   16.6020  -14.2760 O.2    24  SER24      -0.2714
     18  CB       107.8680   18.8090  -14.7410 C.3    24  SER24       0.2130
     19  OG       108.7060   18.8460  -13.5890 O.3    24  SER24      -0.2179
     20  N        104.9890   17.7870  -12.7530 N.am   25  CYS25      -0.1953
     21  CA       104.4530   16.5900  -12.0840 C.3    25  CYS25       0.1843
     22  C        103.8040   15.5410  -13.0020 C.2    25  CYS25       0.2625
     23  O        104.0090   14.3350  -12.8700 O.2    25  CYS25      -0.2714
     24  CB       103.4450   17.0290  -11.0250 C.3    25  CYS25       0.0997
     25  SG       101.8360   17.6210  -11.6050 S.3    25  CYS25      -0.0797
     26  N        103.0880   16.0410  -14.0080 N.am   26  TRP26      -0.1974
     27  CA       102.4430   15.2560  -15.0410 C.3    26  TRP26       0.1640
     28  C        103.3950   14.3150  -15.7780 C.2    26  TRP26       0.2290
     29  O        103.0810   13.1540  -16.0680 O.2    26  TRP26      -0.2864
     30  CB       101.7560   16.2320  -16.0370 C.3    26  TRP26       0.0576
     31  CG       102.6770   17.2020  -16.7750 C.ar   26  TRP26       0.0006
     32  CD1      103.0740   18.3790  -16.1930 C.ar   26  TRP26       0.0946
     33  CD2      103.2410   17.0170  -18.0210 C.ar   26  TRP26       0.0152
     34  NE1      103.8970   18.9330  -17.0560 N.ar   26  TRP26      -0.2442
     35  CE2      104.0380   18.1640  -18.1570 C.ar   26  TRP26       0.0810
     36  CE3      103.2090   16.0540  -19.0360 C.ar   26  TRP26       0.0012
     37  CZ2      104.8060   18.3440  -19.3120 C.ar   26  TRP26       0.0191
     38  CZ3      103.9840   16.2410  -20.1890 C.ar   26  TRP26       0.0001
     39  CH2      104.7790   17.3770  -20.3310 C.ar   26  TRP26       0.0015
     40  N        102.0500   19.0230  -26.8780 N.3    59  THR59      -0.1203
     41  CA       100.6130   18.9950  -26.6490 C.3    59  THR59       0.1994
     42  C        100.3150   19.2880  -25.1800 C.2    59  THR59       0.2618
     43  O         99.1630   19.3130  -24.7400 O.2    59  THR59      -0.2717
     44  CB       100.0160   17.6320  -27.0660 C.3    59  THR59       0.1784
     45  OG1      100.4360   16.5340  -26.2650 O.3    59  THR59      -0.2211
     46  CG2      100.4810   17.3480  -28.4930 C.3    59  THR59       0.0376
     47  N        101.3910   19.4500  -24.4040 N.am   60  ASP60      -0.1959
     48  CA       101.3160   19.8850  -23.0200 C.3    60  ASP60       0.1840
     49  C        102.1740   21.1350  -22.8550 C.2    60  ASP60       0.2622
     50  O        102.8150   21.6100  -23.8010 O.2    60  ASP60      -0.2715
     51  CB       101.7830   18.7600  -22.1070 C.3    60  ASP60       0.1450
     52  CG       100.7270   17.6550  -22.0170 C.2    60  ASP60       0.3671
     53  OD1       99.6530   17.8730  -21.4510 O.co2  60  ASP60      -0.2456
     54  OD2      100.9460   16.5720  -22.5410 O.co2  60  ASP60      -0.2456
     55  N        102.2070   21.7230  -21.6620 N.am   61  SER61      -0.1950
     56  CA       102.8400   23.0210  -21.5310 C.3    61  SER61       0.1924
     57  C        104.0850   23.1000  -20.6630 C.2    61  SER61       0.2314
     58  O        104.2600   24.0650  -19.9140 O.2    61  SER61      -0.2863
     59  CB       101.7800   23.9910  -21.0280 C.3    61  SER61       0.2116
     60  OG       100.6130   23.9740  -21.8410 O.3    61  SER61      -0.2180
     61  N        106.9030   23.4430  -18.1620 N.3    63  CYS63      -0.1221
     62  CA       106.8930   23.8350  -16.7650 C.3    63  CYS63       0.1808
     63  C        105.6150   24.5240  -16.3230 C.2    63  CYS63       0.2602
     64  O        105.5470   24.9450  -15.1720 O.2    63  CYS63      -0.2717
     65  CB       108.0810   24.7410  -16.4630 C.3    63  CYS63       0.0970
     66  SG       109.6340   23.8180  -16.4980 S.3    63  CYS63      -0.0800
     67  N        104.6010   24.6490  -17.1780 N.am   64  SER64      -0.1938
     68  CA       103.3360   25.1960  -16.7520 C.3    64  SER64       0.2055
     69  C        102.3410   24.0940  -16.4520 C.2    64  SER64       0.2644
     70  O        101.3070   24.4060  -15.8690 O.2    64  SER64      -0.2714
     71  CB       102.7780   26.1150  -17.8320 C.3    64  SER64       0.2130
     72  OG       103.7070   27.1540  -18.1380 O.3    64  SER64      -0.2179
     73  N        102.5610   22.8230  -16.7730 N.am   65  GLY65      -0.1939
     74  CA       101.5460   21.8340  -16.4670 C.3    65  GLY65       0.2014
     75  C        101.2430   20.9870  -17.6760 C.2    65  GLY65       0.2639
     76  O        101.7640   21.2690  -18.7650 O.2    65  GLY65      -0.2714
     77  N        100.4190   19.9590  -17.4980 N.am   66  GLY66      -0.1939
     78  CA       100.1140   19.0270  -18.5550 C.3    66  GLY66       0.2014
     79  C         99.2610   17.8770  -18.0550 C.2    66  GLY66       0.2639
     80  O         98.8870   17.8100  -16.8840 O.2    66  GLY66      -0.2714
     81  N         98.9700   16.8900  -18.8910 N.am   67  LEU67      -0.1963
     82  CA        98.0790   15.8030  -18.5100 C.3    67  LEU67       0.1728
     83  C         98.7360   14.4750  -18.8810 C.2    67  LEU67       0.2616
     84  O         99.2620   14.3240  -19.9920 O.2    67  LEU67      -0.2715
     85  CB        96.7390   15.9520  -19.2470 C.3    67  LEU67       0.0311
     86  CG        95.9690   17.2720  -19.1280 C.3    67  LEU67       0.0022
     87  CD1       94.8530   17.3020  -20.1560 C.3    67  LEU67       0.0001
     88  CD2       95.3730   17.4240  -17.7500 C.3    67  LEU67       0.0001
     89  N         98.6440   13.4570  -18.0080 N.am   68  MET68      -0.1977
     90  CA        99.3190   12.1740  -18.2500 C.3    68  MET68       0.1605
     91  C         98.8450   11.4840  -19.5240 C.2    68  MET68       0.2287
     92  O         99.6620   10.9920  -20.3060 O.2    68  MET68      -0.2864
     93  CB        99.1030   11.2190  -17.0910 C.3    68  MET68       0.0413
     94  CG        99.8640   11.6090  -15.8150 C.3    68  MET68       0.0598
     95  SD        99.2330   13.0320  -14.9140 S.3    68  MET68      -0.1393
     96  CE        97.9230   12.2160  -14.0430 C.3    68  MET68       0.0692
     97  N         97.6950   12.9850  -22.2270 N.3    70  ASN70      -0.1240
     98  CA        98.2090   13.6430  -23.4330 C.3    70  ASN70       0.1653
     99  C         99.6440   13.2170  -23.6710 C.2    70  ASN70       0.2266
    100  O        100.0460   12.9580  -24.8150 O.2    70  ASN70      -0.2867
    101  CB        98.2200   15.1650  -23.3530 C.3    70  ASN70       0.1155
    102  CG        96.9010   15.8750  -23.5850 C.2    70  ASN70       0.2627
    103  OD1       95.8180   15.2860  -23.6880 O.2    70  ASN70      -0.2716
    104  ND2       96.9080   17.2020  -23.6510 N.am   70  ASN70      -0.0877
    105  N         95.7530   11.3260  -10.7200 N.3   138  ALA138     -0.1245
    106  CA        95.8210   12.7720  -10.4900 C.3   138  ALA138      0.1562
    107  C         95.2040   12.9820   -9.1160 C.2   138  ALA138      0.2260
    108  O         94.3160   12.2130   -8.7330 O.2   138  ALA138     -0.2867
    109  CB        95.0010   13.5470  -11.5120 C.3   138  ALA138      0.0290
    110  N         91.6260   18.7200   -8.6500 N.3   160  LEU160     -0.1231
    111  CA        92.7940   17.9360   -9.0060 C.3   160  LEU160      0.1693
    112  C         93.8970   18.8900   -9.4280 C.2   160  LEU160      0.2592
    113  O         93.6210   19.7390  -10.2730 O.2   160  LEU160     -0.2718
    114  CB        92.4990   16.9910  -10.1720 C.3   160  LEU160      0.0284
    115  CG        91.4830   15.8590  -10.0930 C.3   160  LEU160      0.0019
    116  CD1       91.4410   15.1510  -11.4490 C.3   160  LEU160      0.0001
    117  CD2       91.8890   14.8280   -9.0590 C.3   160  LEU160      0.0001
    118  N         95.1200   18.7970   -8.9090 N.am  161  ASP161     -0.1960
    119  CA        96.1680   19.7260   -9.2800 C.3   161  ASP161      0.1840
    120  C         97.5340   19.0850   -9.3940 C.2   161  ASP161      0.2622
    121  O         98.5100   19.7810   -9.6960 O.2   161  ASP161     -0.2715
    122  CB        96.2560   20.8520   -8.2410 C.3   161  ASP161      0.1450
    123  CG        96.5410   20.4100   -6.7910 C.2   161  ASP161      0.3671
    124  OD1       96.9190   19.2600   -6.5580 O.co2 161  ASP161     -0.2456
    125  OD2       96.3960   21.2150   -5.8780 O.co2 161  ASP161     -0.2456
    126  N         97.6910   17.7830   -9.1720 N.am  162  HIS162     -0.1959
    127  CA        99.0080   17.1650   -9.1860 C.3   162  HIS162      0.1787
    128  C         98.9410   15.7260   -9.7330 C.2   162  HIS162      0.2620
    129  O         97.9260   15.0600   -9.5800 O.2   162  HIS162     -0.2715
    130  CB        99.5060   17.2870   -7.7130 C.3   162  HIS162      0.0785
    131  CG       100.9100   16.8130   -7.3910 C.ar  162  HIS162      0.0821
    132  ND1      102.0900   17.0830   -7.9420 N.ar  162  HIS162     -0.2267
    133  CD2      101.1280   15.8660   -6.4180 C.ar  162  HIS162      0.1154
    134  CE1      102.9920   16.3220   -7.3730 C.ar  162  HIS162      0.1986
    135  NE2      102.4030   15.6020   -6.4640 N.ar  162  HIS162     -0.2212
    136  N         99.9510   15.2230  -10.4390 N.am  163  GLY163     -0.1954
    137  CA        99.9150   13.8530  -10.9170 C.3   163  GLY163      0.1869
    138  C        100.9680   13.0440  -10.1850 C.2   163  GLY163      0.2309
    139  O        102.0870   13.5550  -10.0380 O.2   163  GLY163     -0.2863
    140  N         91.0270   10.2600  -12.0610 N.3   208  GLU208     -0.1245
    141  CA        91.7470   10.2480  -13.3370 C.3   208  GLU208      0.1567
    142  C         92.9320    9.2820  -13.3230 C.2   208  GLU208      0.2260
    143  O         94.1160    9.6310  -13.1800 O.2   208  GLU208     -0.2867
    144  CB        92.2070   11.6580  -13.6490 C.3   208  GLU208      0.0388
    145  CG        92.5410   11.7650  -15.1320 C.3   208  GLU208      0.1160
    146  CD        92.5420   13.1860  -15.6600 C.2   208  GLU208      0.3649
    147  OE1       91.6010   13.9230  -15.3900 O.co2 208  GLU208     -0.2457
    148  OE2       93.4830   13.5170  -16.3740 O.co2 208  GLU208     -0.2457
@<TRIPOS>BOND
     1    46    44    1
     2    44    41    1
     3    44    45    1
     4    40    41    1
     5    41    42    1
     6    42    43    2
     7    42    47   am
     8   100    99    2
     9    47    48    1
    10    50    49    2
    11   103   102    2
    12    99    98    1
    13   104   102   am
    14   102   101    1
    15    98   101    1
    16    98    97    1
    17    48    49    1
    18    48    51    1
    19    49    55   am
    20    54    52   ar
    21    51    52    1
    22    52    53   ar
    23    60    59    1
    24    55    56    1
    25    56    59    1
    26    56    57    1
    27    57    58    2
    28    39    38   ar
    29    39    37   ar
    30    92    91    2
    31    38    36   ar
    32    87    86    1
    33    84    83    2
    34    91    90    1
    35    37    35   ar
    36    85    86    1
    37    85    82    1
    38    86    88    1
    39    36    33   ar
    40    81    82    1
    41    81    79   am
    42    83    82    1
    43    83    89   am
    44    76    75    2
    45    78    79    1
    46    78    77    1
    47    90    89    1
    48    90    93    1
    49    61    62    1
    50    35    33   ar
    51    35    34   ar
    52    72    71    1
    53    79    80    2
    54    33    31   ar
    55    71    68    1
    56    75    77   am
    57    75    74    1
    58    67    68    1
    59    67    63   am
    60    93    94    1
    61    34    32   ar
    62    31    32   ar
    63    31    30    1
    64    73    74    1
    65    73    69   am
    66    62    65    1
    67    62    63    1
    68    68    69    1
    69    66    65    1
    70    69    70    2
    71   148   146   ar
    72    63    64    2
    73    29    28    2
    74    30    27    1
    75    94    95    1
    76    28    27    1
    77   146   147   ar
    78   146   145    1
    79   145   144    1
    80    27    26    1
    81    95    96    1
    82    18    15    1
    83    18    19    1
    84    13    12    2
    85    15    16    1
    86    15    14    1
    87    17    16    2
    88    26    22   am
    89    16    20   am
    90    12    14   am
    91    12    11    1
    92   144   141    1
    93   141   142    1
    94   141   140    1
    95   142   143    2
    96    10    11    1
    97    22    23    2
    98    22    21    1
    99    20    21    1
   100    21    24    1
   101    25    24    1
   102   109   106    1
   103   116   115    1
   104     4     3    2
   105   137   136    1
   106   137   138    1
   107   105   106    1
   108   106   107    1
   109   136   128   am
   110     5     2    1
   111     5     6    1
   112   113   112    2
   113     2     3    1
   114     2     1    1
   115   138   139    2
   116   114   115    1
   117   114   111    1
   118   115   117    1
   119   128   129    2
   120   128   127    1
   121   121   120    2
   122     8     7    2
   123   112   111    1
   124   112   118   am
   125   120   119    1
   126   120   126   am
   127     9     7   am
   128     7     6    1
   129   119   118    1
   130   119   122    1
   131   127   126    1
   132   127   130    1
   133   107   108    2
   134   111   110    1
   135   122   123    1
   136   132   131   ar
   137   132   134   ar
   138   130   131    1
   139   131   133   ar
   140   134   135   ar
   141   123   124   ar
   142   123   125   ar
   143   135   133   ar
