@<TRIPOS>MOLECULE
tmp/1aivA00.pdb
 81 78 0 0 0
SMALL
GASTEIGER

@<TRIPOS>ATOM
      1  N        -37.0750   -3.0410   73.2840 N.3   470  LEU470     -0.1245
      2  CA       -37.2870   -1.6030   73.3570 C.3   470  LEU470      0.1561
      3  C        -36.6540   -1.1480   74.6640 C.2   470  LEU470      0.2260
      4  O        -35.7750   -0.2670   74.6710 O.2   470  LEU470     -0.2867
      5  CB       -38.7850   -1.2790   73.3400 C.3   470  LEU470      0.0270
      6  CG       -39.5650   -1.7520   72.1120 C.3   470  LEU470      0.0019
      7  CD1      -40.7670   -2.5640   72.5430 C.3   470  LEU470      0.0001
      8  CD2      -39.9940   -0.5790   71.2620 C.3   470  LEU470      0.0001
      9  N        -34.3170   -2.2660   76.4170 N.3   472  HIS472     -0.1226
     10  CA       -32.8680   -2.1660   76.3870 C.3   472  HIS472      0.1752
     11  C        -32.4060   -0.7670   76.0450 C.2   472  HIS472      0.2596
     12  O        -31.5280   -0.2340   76.7150 O.2   472  HIS472     -0.2718
     13  CB       -32.2360   -3.1440   75.3970 C.3   472  HIS472      0.0759
     14  CG       -30.8370   -2.7640   74.9970 C.ar  472  HIS472      0.0818
     15  ND1      -30.5380   -2.1960   73.7740 N.ar  472  HIS472     -0.2268
     16  CD2      -29.6700   -2.8090   75.6820 C.ar  472  HIS472      0.1154
     17  CE1      -29.2500   -1.9050   73.7270 C.ar  472  HIS472      0.1986
     18  NE2      -28.7000   -2.2660   74.8700 N.ar  472  HIS472     -0.2212
     19  N        -32.9890   -0.1660   75.0130 N.am  473  ASN473     -0.1974
     20  CA       -32.5560    1.1680   74.6410 C.3   473  ASN473      0.1688
     21  C        -32.8990    2.2670   75.6410 C.2   473  ASN473      0.2292
     22  O        -32.8900    3.4530   75.3100 O.2   473  ASN473     -0.2864
     23  CB       -32.9570    1.5070   73.2050 C.3   473  ASN473      0.1181
     24  CG       -31.9210    1.0070   72.1890 C.2   473  ASN473      0.2629
     25  OD1      -31.2020    0.0410   72.4560 O.2   473  ASN473     -0.2716
     26  ND2      -31.8090    1.6860   71.0460 N.am  473  ASN473     -0.0877
     27  N        -36.2800   -2.8380   59.6950 N.3   659  ASP659     -0.1225
     28  CA       -35.4110   -2.0180   60.5190 C.3   659  ASP659      0.1805
     29  C        -35.8940   -1.9650   61.9470 C.2   659  ASP659      0.2597
     30  O        -35.1950   -2.4380   62.8370 O.2   659  ASP659     -0.2718
     31  CB       -35.2210   -0.6170   59.9200 C.3   659  ASP659      0.1424
     32  CG       -33.9140   -0.4820   59.1100 C.2   659  ASP659      0.3668
     33  OD1      -33.1500   -1.4680   58.9780 O.co2 659  ASP659     -0.2456
     34  OD2      -33.6490    0.6280   58.6000 O.co2 659  ASP659     -0.2456
     35  N        -37.1380   -1.5250   62.1430 N.am  660  LYS660     -0.1979
     36  CA       -37.7380   -1.4160   63.4750 C.3   660  LYS660      0.1596
     37  C        -37.6700   -2.7260   64.2100 C.2   660  LYS660      0.2287
     38  O        -38.0070   -2.8110   65.3770 O.2   660  LYS660     -0.2864
     39  CB       -39.1880   -0.9230   63.4070 C.3   660  LYS660      0.0298
     40  CG       -39.8560   -1.0120   62.0240 C.3   660  LYS660      0.0038
     41  CD       -40.0990   -2.4500   61.5510 C.3   660  LYS660      0.0206
     42  CE       -40.5900   -2.4710   60.1050 C.3   660  LYS660      0.1093
     43  NZ       -39.5200   -2.0430   59.1430 N.3   660  LYS660     -0.1314
     44  N        -34.9160   -5.3680   63.1500 N.3   662  TYR662     -0.1227
     45  CA       -33.4870   -5.6430   63.1970 C.3   662  TYR662      0.1736
     46  C        -32.8300   -4.7120   64.2250 C.2   662  TYR662      0.2596
     47  O        -32.1620   -5.1720   65.1580 O.2   662  TYR662     -0.2718
     48  CB       -32.8550   -5.4080   61.8230 C.3   662  TYR662      0.0548
     49  CG       -31.3370   -5.4190   61.8460 C.ar  662  TYR662     -0.0200
     50  CD1      -30.6220   -6.6200   61.9100 C.ar  662  TYR662     -0.0009
     51  CD2      -30.6100   -4.2220   61.8380 C.ar  662  TYR662     -0.0009
     52  CE1      -29.2260   -6.6230   61.9700 C.ar  662  TYR662      0.0417
     53  CE2      -29.2130   -4.2190   61.9010 C.ar  662  TYR662      0.0417
     54  CZ       -28.5290   -5.4190   61.9660 C.ar  662  TYR662      0.1957
     55  OH       -27.1510   -5.4110   62.0290 O.3   662  TYR662     -0.2866
     56  N        -33.0580   -3.4090   64.0390 N.am  663  THR663     -0.1939
     57  CA       -32.5400   -2.3340   64.8930 C.3   663  THR663      0.2028
     58  C        -32.4920   -2.6940   66.3620 C.2   663  THR663      0.2642
     59  O        -31.4610   -2.5920   67.0180 O.2   663  THR663     -0.2714
     60  CB       -33.4500   -1.0950   64.8180 C.3   663  THR663      0.1808
     61  OG1      -33.4660   -0.5770   63.4850 O.3   663  THR663     -0.2208
     62  CG2      -32.9830   -0.0180   65.7790 C.3   663  THR663      0.0379
     63  N        -33.6630   -3.0460   66.8710 N.am  664  VAL664     -0.1977
     64  CA       -33.8570   -3.4030   68.2660 C.3   664  VAL664      0.1596
     65  C        -33.3930   -4.8090   68.6530 C.2   664  VAL664      0.2287
     66  O        -32.9530   -5.0240   69.7840 O.2   664  VAL664     -0.2864
     67  CB       -35.3260   -3.1810   68.6530 C.3   664  VAL664      0.0276
     68  CG1      -35.6090   -1.6840   68.7480 C.3   664  VAL664      0.0022
     69  CG2      -36.2390   -3.7950   67.5930 C.3   664  VAL664      0.0022
     70  N        -30.9360   -6.3720   67.1040 N.3   666  SER666     -0.1202
     71  CA       -29.4890   -6.2910   67.0570 C.3   666  SER666      0.2020
     72  C        -29.0750   -5.6450   68.3690 C.2   666  SER666      0.2619
     73  O        -28.4330   -6.2760   69.2050 O.2   666  SER666     -0.2717
     74  CB       -29.0040   -5.4630   65.8610 C.3   666  SER666      0.2103
     75  OG       -28.9630   -4.0750   66.1470 O.3   666  SER666     -0.2182
     76  N        -29.5420   -4.4210   68.5910 N.am  667  SER667     -0.1951
     77  CA       -29.2160   -3.7100   69.8110 C.3   667  SER667      0.1924
     78  C        -30.1680   -4.0820   70.9330 C.2   667  SER667      0.2314
     79  O        -31.1860   -3.4440   71.1780 O.2   667  SER667     -0.2863
     80  CB       -29.1630   -2.2170   69.5470 C.3   667  SER667      0.2116
     81  OG       -28.2250   -1.9610   68.5070 O.3   667  SER667     -0.2180
@<TRIPOS>BOND
     1    34    32   ar
     2    33    32   ar
     3    32    31    1
     4    43    42    1
     5    27    28    1
     6    31    28    1
     7    42    41    1
     8    28    29    1
     9    41    40    1
    10    48    49    1
    11    48    45    1
    12    51    49   ar
    13    51    53   ar
    14    49    50   ar
    15    53    54   ar
    16    50    52   ar
    17    29    35   am
    18    29    30    2
    19    54    52   ar
    20    54    55    1
    21    40    39    1
    22    35    36    1
    23    44    45    1
    24    45    46    1
    25    39    36    1
    26    36    37    1
    27    61    60    1
    28    56    46   am
    29    56    57    1
    30    37    38    2
    31    46    47    2
    32    60    57    1
    33    60    62    1
    34    57    58    1
    35    74    75    1
    36    74    71    1
    37    58    63   am
    38    58    59    2
    39    63    64    1
    40    71    70    1
    41    71    72    1
    42    69    67    1
    43    64    67    1
    44    64    65    1
    45    72    76   am
    46    72    73    2
    47    81    80    1
    48    76    77    1
    49    67    68    1
    50    65    66    2
    51    80    77    1
    52    77    78    1
    53    78    79    2
    54    26    24   am
    55     8     6    1
    56     6     7    1
    57     6     5    1
    58    24    25    2
    59    24    23    1
    60    23    20    1
    61     1     2    1
    62     5     2    1
    63     2     3    1
    64    17    15   ar
    65    17    18   ar
    66    15    14   ar
    67    20    19    1
    68    20    21    1
    69     3     4    2
    70    18    16   ar
    71    14    13    1
    72    14    16   ar
    73    19    11   am
    74    22    21    2
    75    13    10    1
    76    11    10    1
    77    11    12    2
    78    10     9    1
