@<TRIPOS>MOLECULE
tmp/1aixB01.pdb
 207 204 0 0 0
SMALL
GASTEIGER

@<TRIPOS>ATOM
      1  N         22.6590   -6.3530   18.1090 N.3    43  HIS43      -0.1241
      2  CA        22.5110   -7.7120   17.6610 C.3    43  HIS43       0.1621
      3  C         21.6860   -7.8300   16.3490 C.2    43  HIS43       0.2264
      4  O         21.6890   -8.9110   15.7380 O.2    43  HIS43      -0.2867
      5  CB        21.9410   -8.5380   18.7850 C.3    43  HIS43       0.0745
      6  CG        20.4660   -8.6430   18.8290 C.ar   43  HIS43       0.0817
      7  ND1       19.7280   -7.8620   19.7110 N.ar   43  HIS43      -0.2268
      8  CD2       19.5730   -9.3600   18.1040 C.ar   43  HIS43       0.1154
      9  CE1       18.4340   -8.1140   19.5190 C.ar   43  HIS43       0.1986
     10  NE2       18.3180   -9.0140   18.5550 N.ar   43  HIS43      -0.2212
     11  N         25.9690  -10.3750   15.1550 N.3    47  TYR47      -0.1241
     12  CA        25.6810  -11.5170   15.9970 C.3    47  TYR47       0.1605
     13  C         26.3990  -12.7520   15.3880 C.2    47  TYR47       0.2264
     14  O         25.8480  -13.7390   14.8340 O.2    47  TYR47      -0.2867
     15  CB        24.1930  -11.7300   16.2000 C.3    47  TYR47       0.0534
     16  CG        23.9560  -12.6280   17.3920 C.ar   47  TYR47      -0.0201
     17  CD1       24.3630  -12.1660   18.6440 C.ar   47  TYR47      -0.0009
     18  CD2       23.3370  -13.8680   17.2540 C.ar   47  TYR47      -0.0009
     19  CE1       24.1420  -12.9420   19.7880 C.ar   47  TYR47       0.0417
     20  CE2       23.1590  -14.6530   18.3670 C.ar   47  TYR47       0.0417
     21  CZ        23.5700  -14.1860   19.6320 C.ar   47  TYR47       0.1957
     22  OH        23.3850  -15.0240   20.6990 O.3    47  TYR47      -0.2866
     23  N         25.1500  -16.5670   14.9840 N.3    50  TRP50      -0.1241
     24  CA        24.2360  -16.8920   13.8890 C.3    50  TRP50       0.1605
     25  C         24.7780  -16.4240   12.5450 C.2    50  TRP50       0.2264
     26  O         24.0650  -16.3810   11.5390 O.2    50  TRP50      -0.2867
     27  CB        22.8490  -16.3000   14.0560 C.3    50  TRP50       0.0550
     28  CG        22.0950  -16.7760   15.2720 C.ar   50  TRP50       0.0003
     29  CD1       22.3240  -17.8460   16.0810 C.ar   50  TRP50       0.0946
     30  CD2       20.9140  -16.1450   15.7910 C.ar   50  TRP50       0.0152
     31  NE1       21.3800  -17.9420   17.0820 N.ar   50  TRP50      -0.2442
     32  CE2       20.5090  -16.8870   16.9250 C.ar   50  TRP50       0.0810
     33  CE3       20.1800  -15.0120   15.4030 C.ar   50  TRP50       0.0012
     34  CZ2       19.3940  -16.5380   17.6860 C.ar   50  TRP50       0.0191
     35  CZ3       19.0780  -14.6740   16.1670 C.ar   50  TRP50       0.0001
     36  CH2       18.7010  -15.4230   17.3020 C.ar   50  TRP50       0.0015
     37  N         28.2070   -9.6830   22.7110 N.3    92  TRP92      -0.1298
     38  CA        27.4560  -10.7090   22.0560 C.3    92  TRP92       0.1291
     39  C         27.8780  -12.0690   22.6490 C.3    92  TRP92       0.2013
     40  O         27.1520  -13.0320   22.3120 O.3    92  TRP92      -0.2188
     41  CB        27.6900  -10.6360   20.5420 C.3    92  TRP92       0.0497
     42  CG        29.1260  -10.6130   20.0910 C.ar   92  TRP92      -0.0001
     43  CD1       29.8740   -9.4880   19.8430 C.ar   92  TRP92       0.0946
     44  CD2       29.9870  -11.7310   19.8300 C.ar   92  TRP92       0.0152
     45  NE1       31.1460   -9.8380   19.4450 N.ar   92  TRP92      -0.2442
     46  CE2       31.2250  -11.2160   19.4180 C.ar   92  TRP92       0.0810
     47  CE3       29.8030  -13.1190   19.8980 C.ar   92  TRP92       0.0012
     48  CZ2       32.3500  -12.0020   19.0810 C.ar   92  TRP92       0.0191
     49  CZ3       30.9030  -13.9160   19.5430 C.ar   92  TRP92       0.0001
     50  CH2       32.1470  -13.3660   19.1450 C.ar   92  TRP92       0.0015
     51  N         28.2760  -13.2880   25.6330 N.3    94  GLU94      -0.1231
     52  CA        27.5600  -13.7770   26.7860 C.3    94  GLU94       0.1699
     53  C         26.1260  -13.3110   26.9840 C.2    94  GLU94       0.2592
     54  O         25.2420  -14.1760   26.9930 O.2    94  GLU94      -0.2718
     55  CB        28.3200  -13.2390   28.0160 C.3    94  GLU94       0.0402
     56  CG        27.8270  -13.8500   29.3120 C.3    94  GLU94       0.1161
     57  CD        28.2530  -13.0850   30.5670 C.2    94  GLU94       0.3649
     58  OE1       29.1230  -12.1820   30.5680 O.co2  94  GLU94      -0.2457
     59  OE2       27.6670  -13.3980   31.6310 O.co2  94  GLU94      -0.2457
     60  N         25.8710  -11.9890   27.1360 N.am   95  ASN95      -0.1960
     61  CA        24.4680  -11.7060   27.5140 C.3    95  ASN95       0.1819
     62  C         23.8430  -10.5690   26.7490 C.2    95  ASN95       0.2621
     63  O         22.8500  -10.0270   27.2200 O.2    95  ASN95      -0.2715
     64  CB        24.4370  -11.4130   29.0400 C.3    95  ASN95       0.1195
     65  CG        25.4320  -10.3660   29.3990 C.2    95  ASN95       0.2630
     66  OD1       26.1660   -9.8260   28.5720 O.2    95  ASN95      -0.2716
     67  ND2       25.5160  -10.0350   30.6940 N.am   95  ASN95      -0.0877
     68  N         24.4630  -10.1340   25.6630 N.am   96  LEU96      -0.1977
     69  CA        23.9780   -8.9890   24.9010 C.3    96  LEU96       0.1596
     70  C         24.0500   -7.6790   25.6790 C.2    96  LEU96       0.2287
     71  O         23.2190   -6.7800   25.4910 O.2    96  LEU96      -0.2864
     72  CB        22.5210   -9.2390   24.4990 C.3    96  LEU96       0.0297
     73  CG        22.2650   -9.5880   23.0500 C.3    96  LEU96       0.0022
     74  CD1       23.3410  -10.4400   22.4350 C.3    96  LEU96       0.0001
     75  CD2       20.9090  -10.2830   22.9450 C.3    96  LEU96       0.0001
     76  N          5.2320  -17.2480   19.2630 N.3   146  GLU146     -0.1245
     77  CA         6.5990  -17.8500   19.3070 C.3   146  GLU146      0.1567
     78  C          6.9280  -18.7790   18.0920 C.2   146  GLU146      0.2260
     79  O          7.9140  -18.5850   17.3930 O.2   146  GLU146     -0.2867
     80  CB         6.7540  -18.6800   20.5760 C.3   146  GLU146      0.0388
     81  CG         8.1950  -18.6610   21.0570 C.3   146  GLU146      0.1160
     82  CD         8.4190  -19.4360   22.3420 C.2   146  GLU146      0.3649
     83  OE1        7.8450  -19.0530   23.4290 O.co2 146  GLU146     -0.2457
     84  OE2        9.1900  -20.4670   22.3370 O.co2 146  GLU146     -0.2457
     85  N         15.4190  -15.8240   35.0290 N.3   171  THR171     -0.1203
     86  CA        16.3530  -16.3070   34.0070 C.3   171  THR171      0.1994
     87  C         17.7140  -16.7270   34.5560 C.2   171  THR171      0.2618
     88  O         18.1000  -16.3700   35.6720 O.2   171  THR171     -0.2717
     89  CB        16.6490  -15.1380   33.0590 C.3   171  THR171      0.1784
     90  OG1       17.5710  -15.5440   32.0580 O.3   171  THR171     -0.2211
     91  CG2       17.2530  -13.9280   33.7740 C.3   171  THR171      0.0376
     92  N         18.4220  -17.4670   33.7150 N.am  172  ARG172     -0.1965
     93  CA        19.7710  -17.9410   34.0340 C.3   172  ARG172      0.1729
     94  C         20.8130  -16.9670   33.4510 C.2   172  ARG172      0.2616
     95  O         21.9940  -17.0030   33.8000 O.2   172  ARG172     -0.2715
     96  CB        19.9810  -19.3580   33.4880 C.3   172  ARG172      0.0348
     97  CG        18.9830  -20.3720   34.0730 C.3   172  ARG172      0.0492
     98  CD        19.1500  -21.7930   33.5170 C.3   172  ARG172      0.2205
     99  NE        20.4570  -22.3680   33.8400 N.pl3 172  ARG172     -0.0865
    100  CZ        20.7610  -23.6740   33.8350 C.cat 172  ARG172      0.5346
    101  NH1       19.8590  -24.6080   33.5150 N.pl3 172  ARG172      0.1354
    102  NH2       21.9770  -24.1450   34.1470 N.pl3 172  ARG172      0.1354
    103  N         20.3820  -16.0800   32.5570 N.am  173  ILE173     -0.1977
    104  CA        21.3160  -15.0890   31.9700 C.3   173  ILE173      0.1596
    105  C         21.7110  -14.0570   33.0230 C.2   173  ILE173      0.2287
    106  O         20.9010  -13.6600   33.8670 O.2   173  ILE173     -0.2864
    107  CB        20.6760  -14.2930   30.8250 C.3   173  ILE173      0.0276
    108  CG1       20.0870  -15.1660   29.7190 C.3   173  ILE173      0.0022
    109  CG2       21.6700  -13.3520   30.1290 C.3   173  ILE173      0.0022
    110  CD1       21.1360  -15.9970   28.9820 C.3   173  ILE173      0.0001
    111  N          4.3600   -9.3250   24.7430 N.3   193  ASP193     -0.1225
    112  CA         5.8050   -9.4320   24.6170 C.3   193  ASP193      0.1805
    113  C          6.2000   -9.1620   23.1770 C.2   193  ASP193      0.2598
    114  O          5.3530   -9.2060   22.2700 O.2   193  ASP193     -0.2718
    115  CB         6.2180  -10.8620   25.0050 C.3   193  ASP193      0.1424
    116  CG         7.7100  -11.0420   25.2980 C.2   193  ASP193      0.3668
    117  OD1        8.4810  -10.0160   25.3790 O.co2 193  ASP193     -0.2456
    118  OD2        8.1900  -12.2310   25.4680 O.co2 193  ASP193     -0.2456
    119  N          7.4660   -8.8630   23.0310 N.am  194  ALA194     -0.1966
    120  CA         8.0860   -8.7240   21.7230 C.3   194  ALA194      0.1728
    121  C          8.3610  -10.1520   21.2510 C.2   194  ALA194      0.2616
    122  O          8.3840  -11.0940   22.0600 O.2   194  ALA194     -0.2715
    123  CB         9.4020   -7.9470   21.8450 C.3   194  ALA194      0.0334
    124  N          8.5480  -10.3060   19.9670 N.am  195  CYS195     -0.1954
    125  CA         8.8500  -11.6190   19.3800 C.3   195  CYS195      0.1843
    126  C          9.7180  -11.4230   18.1370 C.2   195  CYS195      0.2625
    127  O          9.9380  -10.2910   17.6860 O.2   195  CYS195     -0.2714
    128  CB         7.5570  -12.3600   19.0240 C.3   195  CYS195      0.0997
    129  SG         7.7490  -14.1750   19.0470 S.3   195  CYS195     -0.0797
    130  N         10.1840  -12.5410   17.6330 N.am  196  GLU196     -0.1977
    131  CA        11.0700  -12.6160   16.4580 C.3   196  GLU196      0.1602
    132  C         10.6600  -11.5970   15.3830 C.2   196  GLU196      0.2287
    133  O          9.5790  -11.7020   14.7820 O.2   196  GLU196     -0.2864
    134  CB        11.0020  -14.0430   15.9100 C.3   196  GLU196      0.0415
    135  CG        11.6790  -14.2060   14.5480 C.3   196  GLU196      0.1163
    136  CD        13.1570  -13.8080   14.5560 C.2   196  GLU196      0.3649
    137  OE1       13.8540  -13.9230   15.6350 O.co2 196  GLU196     -0.2457
    138  OE2       13.7050  -13.3560   13.4790 O.co2 196  GLU196     -0.2457
    139  N         10.9600   -8.2090   16.1350 N.3   198  ASP198     -0.1225
    140  CA        10.7060   -6.9850   16.9280 C.3   198  ASP198      0.1805
    141  C         12.0020   -6.3660   17.4620 C.2   198  ASP198      0.2598
    142  O         12.0520   -5.1720   17.7930 O.2   198  ASP198     -0.2718
    143  CB         9.8130   -7.3110   18.1200 C.3   198  ASP198      0.1424
    144  CG         8.3560   -7.4900   17.7120 C.2   198  ASP198      0.3668
    145  OD1        7.8990   -6.8610   16.6830 O.co2 198  ASP198     -0.2456
    146  OD2        7.5890   -8.2700   18.3910 O.co2 198  ASP198     -0.2456
    147  N         13.0180   -7.1930   17.5380 N.am  199  SER199     -0.1952
    148  CA        14.3380   -6.7770   18.0280 C.3   199  SER199      0.1924
    149  C         14.7410   -5.4340   17.4380 C.2   199  SER199      0.2314
    150  O         14.4710   -5.1500   16.2660 O.2   199  SER199     -0.2863
    151  CB        15.4130   -7.7620   17.5760 C.3   199  SER199      0.2116
    152  OG        15.4260   -8.8960   18.4180 O.3   199  SER199     -0.2180
    153  N         14.3140   -3.1560   22.2470 N.3   219  VAL219     -0.1231
    154  CA        14.0150   -4.6030   22.3140 C.3   219  VAL219      0.1692
    155  C         15.3340   -5.3510   22.1160 C.2   219  VAL219      0.2593
    156  O         15.9690   -5.2520   21.0570 O.2   219  VAL219     -0.2718
    157  CB        13.0190   -5.0280   21.2290 C.3   219  VAL219      0.0266
    158  CG1       12.5470   -6.4750   21.3860 C.3   219  VAL219      0.0020
    159  CG2       11.7480   -4.1760   21.2190 C.3   219  VAL219      0.0020
    160  N         15.7340   -6.0850   23.1410 N.am  220  SER220     -0.1938
    161  CA        17.0280   -6.7890   23.1190 C.3   220  SER220      0.2055
    162  C         16.8810   -8.3150   23.0770 C.2   220  SER220      0.2643
    163  O         17.2130   -8.9660   22.0780 O.2   220  SER220     -0.2714
    164  CB        17.8490   -6.4300   24.3510 C.3   220  SER220      0.2130
    165  OG        19.1900   -6.8650   24.1760 O.3   220  SER220     -0.2179
    166  N         16.4060   -8.9020   24.1670 N.am  221  TRP221     -0.1959
    167  CA        16.2610  -10.3690   24.2220 C.3   221  TRP221      0.1771
    168  C         15.1590  -10.8120   25.1860 C.2   221  TRP221      0.2620
    169  O         14.6730  -10.0260   26.0090 O.2   221  TRP221     -0.2715
    170  CB        17.5850  -11.0280   24.6530 C.3   221  TRP221      0.0590
    171  CG        18.1100  -10.5810   26.0300 C.ar  221  TRP221      0.0006
    172  CD1       18.8500   -9.4940   26.3040 C.ar  221  TRP221      0.0946
    173  CD2       17.8980  -11.2730   27.2550 C.ar  221  TRP221      0.0152
    174  NE1       19.1160   -9.5030   27.7130 N.ar  221  TRP221     -0.2442
    175  CE2       18.5520  -10.5560   28.2500 C.ar  221  TRP221      0.0810
    176  CE3       17.2100  -12.4420   27.5990 C.ar  221  TRP221      0.0012
    177  CZ2       18.5690  -10.9520   29.5950 C.ar  221  TRP221      0.0191
    178  CZ3       17.2270  -12.8290   28.9560 C.ar  221  TRP221      0.0001
    179  CH2       17.8760  -12.1180   29.9050 C.ar  221  TRP221      0.0015
    180  N         14.8210  -12.0770   25.0170 N.am  222  GLY222     -0.1940
    181  CA        13.8060  -12.7790   25.8130 C.3   222  GLY222      0.2014
    182  C         13.9290  -14.2790   25.5160 C.2   222  GLY222      0.2639
    183  O         14.5050  -14.6850   24.4990 O.2   222  GLY222     -0.2714
    184  N         13.3990  -15.0790   26.4150 N.am  223  GLU223     -0.1963
    185  CA        13.3990  -16.5440   26.2610 C.3   223  GLU223      0.1733
    186  C         12.0210  -16.9620   25.7750 C.2   223  GLU223      0.2616
    187  O         11.0840  -17.1180   26.5620 O.2   223  GLU223     -0.2715
    188  CB        13.7100  -17.2030   27.6040 C.3   223  GLU223      0.0429
    189  CG        14.7720  -16.4440   28.4010 C.3   223  GLU223      0.1163
    190  CD        14.8480  -16.8720   29.8670 C.2   223  GLU223      0.3649
    191  OE1       14.6010  -18.0950   30.1960 O.co2 223  GLU223     -0.2457
    192  OE2       15.1610  -16.0110   30.7750 O.co2 223  GLU223     -0.2457
    193  N         11.9170  -17.1390   24.4800 N.am  224  GLY224     -0.1955
    194  CA        10.6270  -17.4280   23.8630 C.3   224  GLY224      0.1869
    195  C          9.8900  -16.0980   23.7680 C.2   224  GLY224      0.2309
    196  O         10.5050  -15.0240   23.8600 O.2   224  GLY224     -0.2863
    197  N          5.9890  -16.0440   27.2470 N.3   227  ARG227     -0.1245
    198  CA         5.9150  -17.2310   28.1220 C.3   227  ARG227      0.1563
    199  C          5.6730  -16.7870   29.5570 C.2   227  ARG227      0.2260
    200  O          6.2480  -15.7930   30.0160 O.2   227  ARG227     -0.2867
    201  CB         7.2280  -18.0180   28.1410 C.3   227  ARG227      0.0307
    202  CG         7.6440  -18.5570   26.7810 C.3   227  ARG227      0.0489
    203  CD         7.6350  -20.0860   26.7020 C.3   227  ARG227      0.2205
    204  NE         7.8040  -20.5800   25.3290 N.pl3 227  ARG227     -0.0865
    205  CZ         8.1320  -21.8390   25.0110 C.cat 227  ARG227      0.5346
    206  NH1        8.3340  -22.7630   25.9600 N.pl3 227  ARG227      0.1354
    207  NH2        8.2850  -22.2720   23.7520 N.pl3 227  ARG227      0.1354
@<TRIPOS>BOND
     1    26    25    2
     2    25    24    1
     3   138   136   ar
     4    24    27    1
     5    24    23    1
     6    27    28    1
     7   135   136    1
     8   135   134    1
     9   136   137   ar
    10   133   132    2
    11    14    13    2
    12    11    12    1
    13    28    30   ar
    14    28    29   ar
    15   132   131    1
    16    13    12    1
    17    33    30   ar
    18    33    35   ar
    19     4     3    2
    20    30    32   ar
    21   134   131    1
    22    12    15    1
    23    29    31   ar
    24   139   140    1
    25    35    36   ar
    26    15    16    1
    27   150   149    2
    28     3     2    1
    29   131   130    1
    30   145   144   ar
    31    32    31   ar
    32    32    34   ar
    33   140   141    1
    34   140   143    1
    35    18    16   ar
    36    18    20   ar
    37    36    34   ar
    38    16    17   ar
    39    79    78    2
    40   149   148    1
    41   141   147   am
    42   141   142    2
    43   147   148    1
    44   151   148    1
    45   151   152    1
    46   130   126   am
    47     2     1    1
    48     2     5    1
    49   127   126    2
    50   144   143    1
    51   144   146   ar
    52    78    77    1
    53     8    10   ar
    54     8     6   ar
    55   126   125    1
    56    20    21   ar
    57    10     9   ar
    58    17    19   ar
    59     5     6    1
    60     6     7   ar
    61   128   129    1
    62   128   125    1
    63    48    50   ar
    64    48    46   ar
    65    50    49   ar
    66    76    77    1
    67    77    80    1
    68   125   124    1
    69    46    45   ar
    70    46    44   ar
    71    45    43   ar
    72     9     7   ar
    73    49    47   ar
    74    21    19   ar
    75    21    22    1
    76    44    47   ar
    77    44    42   ar
    78    43    42   ar
    79   124   121   am
    80    42    41    1
    81    41    38    1
    82    80    81    1
    83   156   155    2
    84    81    82    1
    85   159   157    1
    86   157   158    1
    87   157   154    1
    88   121   120    1
    89   121   122    2
    90   120   123    1
    91   120   119    1
    92    38    39    1
    93    38    37    1
    94   163   162    2
    95   155   154    1
    96   155   160   am
    97   153   154    1
    98   114   113    2
    99    40    39    1
   100    84    82   ar
   101    82    83   ar
   102    74    73    1
   103    75    73    1
   104   119   113   am
   105    73    72    1
   106   162   161    1
   107   162   166   am
   108   161   160    1
   109   161   164    1
   110   113   112    1
   111   207   205    1
   112   195   196    2
   113   195   194    1
   114   194   193    1
   115   166   167    1
   116   165   164    1
   117   167   170    1
   118   167   168    1
   119   193   186   am
   120    72    69    1
   121   183   182    2
   122   112   111    1
   123   112   115    1
   124   170   171    1
   125    69    68    1
   126    69    70    1
   127   115   116    1
   128   205   204    2
   129   205   206    1
   130   180   168   am
   131   180   181    1
   132   168   169    2
   133   116   117   ar
   134   116   118   ar
   135   204   203    1
   136    71    70    2
   137   182   181    1
   138   182   184   am
   139    51    52    1
   140    68    62   am
   141   186   185    1
   142   186   187    2
   143   171   172   ar
   144   171   173   ar
   145   185   184    1
   146   185   188    1
   147   172   174   ar
   148   203   202    1
   149    62    63    2
   150    62    61    1
   151   202   201    1
   152    52    53    1
   153    52    55    1
   154    53    54    2
   155    53    60   am
   156    60    61    1
   157   197   198    1
   158   173   176   ar
   159   173   175   ar
   160    61    64    1
   161   176   178   ar
   162   188   189    1
   163   174   175   ar
   164    55    56    1
   165   198   201    1
   166   198   199    1
   167   175   177   ar
   168   189   190    1
   169    66    65    2
   170   178   179   ar
   171   110   108    1
   172    64    65    1
   173    56    57    1
   174    65    67   am
   175   199   200    2
   176   177   179   ar
   177   108   107    1
   178   190   191   ar
   179   190   192   ar
   180   109   107    1
   181    57    58   ar
   182    57    59   ar
   183   107   104    1
   184   104   103    1
   185   104   105    1
   186    90    89    1
   187   103    94   am
   188   105   106    2
   189    89    91    1
   190    89    86    1
   191    94    95    2
   192    94    93    1
   193    96    93    1
   194    96    97    1
   195   101   100    1
   196    98    99    1
   197    98    97    1
   198    92    93    1
   199    92    87   am
   200   100    99    2
   201   100   102    1
   202    86    87    1
   203    86    85    1
   204    87    88    2
