@<TRIPOS>MOLECULE
tmp/1aj0A01.pdb
 111 108 0 0 0
SMALL
GASTEIGER

@<TRIPOS>ATOM
      1  N         47.3600    8.5180    7.0690 N.3    62  THR62      -0.1203
      2  CA        47.9000    7.2930    6.4100 C.3    62  THR62       0.1994
      3  C         47.6200    7.3540    4.9180 C.2    62  THR62       0.2618
      4  O         47.4590    6.3100    4.2830 O.2    62  THR62      -0.2717
      5  CB        47.4360    5.9840    7.1430 C.3    62  THR62       0.1784
      6  OG1       45.9800    5.9770    7.2180 O.3    62  THR62      -0.2211
      7  CG2       48.0370    5.8790    8.5620 C.3    62  THR62       0.0376
      8  N         47.5690    8.5680    4.3850 N.am   63  ARG63      -0.1965
      9  CA        47.3150    8.7520    2.9250 C.3    63  ARG63       0.1714
     10  C         48.6420    8.7560    2.1950 C.2    63  ARG63       0.2458
     11  O         49.6810    9.0660    2.8000 O.2    63  ARG63      -0.2730
     12  CB        46.5090   10.0390    2.7410 C.3    63  ARG63       0.0347
     13  CG        45.1640   10.0070    3.4720 C.3    63  ARG63       0.0492
     14  CD        44.3600   11.2370    3.3870 C.3    63  ARG63       0.2205
     15  NE        43.0420   11.1420    4.0290 N.pl3  63  ARG63      -0.0865
     16  CZ        42.2240   12.2130    4.0080 C.cat  63  ARG63       0.5346
     17  NH1       42.5890   13.3360    3.3950 N.pl3  63  ARG63       0.1354
     18  NH2       41.0210   12.2150    4.6030 N.pl3  63  ARG63       0.1354
     19  N         48.6330    8.4410    0.9040 N.am   64  PRO64      -0.2727
     20  CA        49.8380    8.4220    0.0730 C.3    64  PRO64       0.1402
     21  C         50.5890    9.7420    0.1710 C.2    64  PRO64       0.2269
     22  O         49.9500   10.8040    0.0260 O.2    64  PRO64      -0.2865
     23  CB        49.3360    8.1630   -1.3430 C.3    64  PRO64       0.0296
     24  CG        48.0000    7.5000   -1.1630 C.3    64  PRO64       0.0237
     25  CD        47.4320    8.0570    0.1440 C.3    64  PRO64       0.0939
     26  N         41.8600   -0.3010   -0.0610 N.3   189  GLY189     -0.1210
     27  CA        42.7000    0.8060   -0.5160 C.3   189  GLY189      0.1956
     28  C         44.1460    0.5920   -0.1060 C.2   189  GLY189      0.2611
     29  O         44.9450    1.4090   -0.6020 O.2   189  GLY189     -0.2717
     30  N         44.4930   -0.4210    0.6810 N.am  190  PHE190     -0.1976
     31  CA        45.9330   -0.5060    1.0710 C.3   190  PHE190      0.1639
     32  C         46.6920   -1.5900    0.3190 C.2   190  PHE190      0.2290
     33  O         46.5650   -2.7420    0.7410 O.2   190  PHE190     -0.2864
     34  CB        46.1220   -0.6930    2.5850 C.3   190  PHE190      0.0560
     35  CG        45.6770    0.4840    3.4220 C.ar  190  PHE190     -0.0200
     36  CD1       46.5620    1.5310    3.6810 C.ar  190  PHE190     -0.0042
     37  CD2       44.3940    0.4800    3.9810 C.ar  190  PHE190     -0.0042
     38  CE1       46.1730    2.6150    4.4800 C.ar  190  PHE190     -0.0003
     39  CE2       44.0100    1.5700    4.7610 C.ar  190  PHE190     -0.0003
     40  CZ        44.8760    2.6230    5.0070 C.ar  190  PHE190     -0.0000
     41  N         35.0820    4.5460    3.3030 N.3   219  SER219     -0.1202
     42  CA        34.6520    5.9660    3.1930 C.3   219  SER219      0.2020
     43  C         35.5280    6.8860    2.3550 C.2   219  SER219      0.2619
     44  O         36.6870    7.1960    2.6890 O.2   219  SER219     -0.2717
     45  CB        34.3960    6.4740    4.6260 C.3   219  SER219      0.2103
     46  OG        33.9680    7.8380    4.5930 O.3   219  SER219     -0.2182
     47  N         34.9190    7.4060    1.2840 N.am  220  ARG220     -0.1965
     48  CA        35.5310    8.3440    0.3430 C.3   220  ARG220      0.1729
     49  C         36.8420    7.8610   -0.2720 C.2   220  ARG220      0.2616
     50  O         37.5770    8.7060   -0.8470 O.2   220  ARG220     -0.2715
     51  CB        35.8450    9.6690    1.0930 C.3   220  ARG220      0.0348
     52  CG        34.5670   10.3520    1.5810 C.3   220  ARG220      0.0492
     53  CD        34.9920   11.6390    2.2430 C.3   220  ARG220      0.2205
     54  NE        33.8590   12.2570    2.9060 N.pl3 220  ARG220     -0.0865
     55  CZ        33.9940   13.3300    3.6930 C.cat 220  ARG220      0.5346
     56  NH1       35.1680   13.8950    3.9290 N.pl3 220  ARG220      0.1354
     57  NH2       32.9050   13.8390    4.2770 N.pl3 220  ARG220      0.1354
     58  N         37.0820    6.5560   -0.2060 N.am  221  LYS221     -0.1963
     59  CA        38.3360    6.0090   -0.7460 C.3   221  LYS221      0.1728
     60  C         38.3110    5.9610   -2.2760 C.2   221  LYS221      0.2616
     61  O         37.3310    6.1300   -2.9990 O.2   221  LYS221     -0.2715
     62  CB        38.7540    4.6360   -0.1680 C.3   221  LYS221      0.0311
     63  CG        39.3720    4.8400    1.2490 C.3   221  LYS221      0.0038
     64  CD        39.7360    3.5280    1.9400 C.3   221  LYS221      0.0206
     65  CE        40.4820    3.7490    3.2620 C.3   221  LYS221      0.1093
     66  NZ        40.5150    2.4560    4.0160 N.3   221  LYS221     -0.1314
     67  N         39.5180    5.6590   -2.7440 N.am  222  SER222     -0.1950
     68  CA        39.8700    5.5320   -4.1600 C.3   222  SER222      0.1924
     69  C         39.0110    4.5630   -4.9350 C.2   222  SER222      0.2314
     70  O         38.6560    4.8550   -6.0970 O.2   222  SER222     -0.2863
     71  CB        41.3480    5.0690   -4.1780 C.3   222  SER222      0.2116
     72  OG        41.9200    5.6550   -5.3210 O.3   222  SER222     -0.2180
     73  N         36.9090   13.7710   -4.0560 N.3   232  PRO232     -0.2116
     74  CA        36.6980   13.3440   -2.6730 C.3   232  PRO232      0.1372
     75  C         35.4280   13.8090   -1.9860 C.2   232  PRO232      0.2244
     76  O         34.9010   13.0840   -1.1230 O.2   232  PRO232     -0.2868
     77  CB        37.9190   13.9280   -1.9290 C.3   232  PRO232      0.0268
     78  CG        38.9940   13.9360   -2.9840 C.3   232  PRO232      0.0207
     79  CD        38.2170   14.4550   -4.2070 C.3   232  PRO232      0.0892
     80  N         31.7210   11.9020   -3.0340 N.3   235  ARG235     -0.1245
     81  CA        31.6270   10.4170   -2.9280 C.3   235  ARG235      0.1563
     82  C         30.6410    9.8660   -1.9170 C.2   235  ARG235      0.2260
     83  O         30.6600    8.6530   -1.6600 O.2   235  ARG235     -0.2867
     84  CB        33.0390    9.8590   -2.7010 C.3   235  ARG235      0.0307
     85  CG        33.9360    9.9120   -3.9400 C.3   235  ARG235      0.0489
     86  CD        35.3740    9.6340   -3.5800 C.3   235  ARG235      0.2205
     87  NE        36.2790   10.1670   -4.5820 N.pl3 235  ARG235     -0.0865
     88  CZ        37.6100   10.1650   -4.5310 C.cat 235  ARG235      0.5346
     89  NH1       38.3370    9.6120   -3.5690 N.pl3 235  ARG235      0.1354
     90  NH2       38.3180   10.7710   -5.4990 N.pl3 235  ARG235      0.1354
     91  N         33.8220    2.2030    9.3430 N.3   255  ARG255     -0.1245
     92  CA        34.5450    3.4670    9.6210 C.3   255  ARG255      0.1563
     93  C         34.1470    4.4920    8.5840 C.2   255  ARG255      0.2260
     94  O         34.4040    4.2840    7.3850 O.2   255  ARG255     -0.2867
     95  CB        36.0580    3.2430    9.6530 C.3   255  ARG255      0.0307
     96  CG        36.9890    4.3650   10.0800 C.3   255  ARG255      0.0489
     97  CD        38.3970    3.8300   10.2630 C.3   255  ARG255      0.2205
     98  NE        39.3060    4.9380   10.5420 N.pl3 255  ARG255     -0.0865
     99  CZ        39.7860    5.8300    9.6800 C.cat 255  ARG255      0.5346
    100  NH1       39.5250    5.7150    8.3790 N.pl3 255  ARG255      0.1354
    101  NH2       40.5190    6.8750   10.1130 N.pl3 255  ARG255      0.1354
    102  N         33.2330    8.8480    7.4090 N.3   257  HIS257     -0.1241
    103  CA        33.3350   10.3110    7.6170 C.3   257  HIS257      0.1621
    104  C         31.9370   10.9030    7.7480 C.2   257  HIS257      0.2264
    105  O         31.7510   11.9140    8.4380 O.2   257  HIS257     -0.2867
    106  CB        33.9610   11.0460    6.3930 C.3   257  HIS257      0.0745
    107  CG        35.3840   10.6340    6.1380 C.ar  257  HIS257      0.0817
    108  ND1       35.7440    9.6140    5.3200 N.ar  257  HIS257     -0.2268
    109  CD2       36.5420   11.1530    6.6050 C.ar  257  HIS257      0.1154
    110  CE1       37.0440    9.4660    5.2990 C.ar  257  HIS257      0.1986
    111  NE2       37.5860   10.3930    6.1020 N.ar  257  HIS257     -0.2212
@<TRIPOS>BOND
     1    70    69    2
     2    90    88    1
     3    72    71    1
     4    69    68    1
     5    87    88    2
     6    87    86    1
     7    88    89    1
     8    79    73    1
     9    79    78    1
    10    71    68    1
    11    68    67    1
    12    73    74    1
    13    85    86    1
    14    85    84    1
    15    80    81    1
    16    61    60    2
    17    78    77    1
    18    81    84    1
    19    81    82    1
    20    67    60   am
    21    74    75    1
    22    74    77    1
    23    60    59    1
    24    75    76    2
    25    82    83    2
    26    23    24    1
    27    23    20    1
    28    24    25    1
    29    50    49    2
    30    59    58    1
    31    59    62    1
    32    29    28    2
    33    27    28    1
    34    27    26    1
    35    49    58   am
    36    49    48    1
    37    62    63    1
    38    28    30   am
    39    22    21    2
    40    20    21    1
    41    20    19    1
    42    25    19    1
    43    32    33    2
    44    32    31    1
    45    48    51    1
    46    48    47    1
    47    30    31    1
    48    19    10   am
    49    31    34    1
    50    51    52    1
    51    63    64    1
    52    47    43   am
    53    52    53    1
    54    64    65    1
    55    10    11    2
    56    10     9    1
    57    53    54    1
    58    43    44    2
    59    43    42    1
    60    34    35    1
    61    12     9    1
    62    12    13    1
    63    54    55    2
    64     9     8    1
    65    42    41    1
    66    42    45    1
    67    65    66    1
    68    14    13    1
    69    14    15    1
    70    17    16    1
    71    35    36   ar
    72    35    37   ar
    73    36    38   ar
    74    55    56    1
    75    55    57    1
    76    37    39   ar
    77    16    15    2
    78    16    18    1
    79     4     3    2
    80     8     3   am
    81    38    40   ar
    82    46    45    1
    83    39    40   ar
    84     3     2    1
    85   110   108   ar
    86   110   111   ar
    87   108   107   ar
    88   111   109   ar
    89   107   106    1
    90   107   109   ar
    91   106   103    1
    92     2     1    1
    93     2     5    1
    94     5     6    1
    95     5     7    1
    96    94    93    2
    97   102   103    1
    98   103   104    1
    99   104   105    2
   100   100    99    1
   101    93    92    1
   102    91    92    1
   103    92    95    1
   104    95    96    1
   105    99   101    1
   106    99    98    2
   107    96    97    1
   108    97    98    1
