@<TRIPOS>MOLECULE
tmp/1aj0A00.pdb
 118 107 0 0 0
SMALL
GASTEIGER

@<TRIPOS>ATOM
      1  N         47.3600    8.5180    7.0690 N.3    62  THR62      -0.1203
      2  CA        47.9000    7.2930    6.4100 C.3    62  THR62       0.1994
      3  C         47.6200    7.3540    4.9180 C.2    62  THR62       0.2617
      4  O         47.4590    6.3100    4.2830 O.2    62  THR62      -0.2717
      5  CB        47.4360    5.9840    7.1430 C.3    62  THR62       0.1784
      6  OG1       45.9800    5.9770    7.2180 O.3    62  THR62      -0.2211
      7  CG2       48.0370    5.8790    8.5620 C.3    62  THR62       0.0376
      8  N         47.5690    8.5680    4.3850 N.am   63  ARG63      -0.1979
      9  CA        47.3150    8.7520    2.9250 C.3    63  ARG63       0.1597
     10  C         48.6420    8.7560    2.1950 C.2    63  ARG63       0.2287
     11  O         49.6810    9.0660    2.8000 O.2    63  ARG63      -0.2864
     12  CB        46.5090   10.0390    2.7410 C.3    63  ARG63       0.0334
     13  CG        45.1640   10.0070    3.4720 C.3    63  ARG63       0.0492
     14  CD        44.3600   11.2370    3.3870 C.3    63  ARG63       0.2205
     15  NE        43.0420   11.1420    4.0290 N.pl3  63  ARG63      -0.0865
     16  CZ        42.2240   12.2130    4.0080 C.cat  63  ARG63       0.5346
     17  NH1       42.5890   13.3360    3.3950 N.pl3  63  ARG63       0.1354
     18  NH2       41.0210   12.2150    4.6030 N.pl3  63  ARG63       0.1354
     19  N         43.9330    5.1490   16.7490 N.3    96  ASP96      -0.1239
     20  CA        44.5970    4.8240   15.4790 C.3    96  ASP96       0.1674
     21  C         46.0430    5.3140   15.5500 C.2    96  ASP96       0.2266
     22  O         46.2850    6.4780   15.1950 O.2    96  ASP96      -0.2867
     23  CB        43.7590    5.5010   14.4010 C.3    96  ASP96       0.1410
     24  CG        43.9290    4.9960   12.9830 C.2    96  ASP96       0.3668
     25  OD1       45.0330    4.5270   12.6580 O.co2  96  ASP96      -0.2456
     26  OD2       42.9700    5.0910   12.1810 O.co2  96  ASP96      -0.2456
     27  N         43.4850    0.5000   17.2900 N.3   115  ASN115     -0.1240
     28  CA        43.3170    0.2990   15.7980 C.3   115  ASN115      0.1653
     29  C         44.6230    0.6100   15.1210 C.2   115  ASN115      0.2266
     30  O         44.9010    1.7840   14.7530 O.2   115  ASN115     -0.2867
     31  CB        42.0950    1.1420   15.3760 C.3   115  ASN115      0.1155
     32  CG        41.9560    1.1080   13.8390 C.2   115  ASN115      0.2627
     33  OD1       42.2480    0.0600   13.2590 O.2   115  ASN115     -0.2716
     34  ND2       41.5580    2.2320   13.2620 N.am  115  ASN115     -0.0877
     35  N         46.7730    0.2780   11.9520 N.3   117  ILE117     -0.1245
     36  CA        46.7360   -0.2480   10.5500 C.3   117  ILE117      0.1561
     37  C         47.9820   -1.0760   10.2690 C.2   117  ILE117      0.2260
     38  O         47.9670   -1.8050    9.2570 O.2   117  ILE117     -0.2867
     39  CB        46.5600    0.8800    9.4720 C.3   117  ILE117      0.0252
     40  CG1       47.8950    1.6320    9.2720 C.3   117  ILE117      0.0019
     41  CG2       45.3260    1.7490    9.7800 C.3   117  ILE117      0.0019
     42  CD1       48.0180    3.0090    9.9760 C.3   117  ILE117      0.0001
     43  N         42.6520   -4.1990   16.5880 N.3   137  CYS137     -0.1235
     44  CA        42.1790   -4.4260   15.1950 C.3   137  CYS137      0.1677
     45  C         43.4090   -4.7150   14.3340 C.2   137  CYS137      0.2270
     46  O         44.4270   -3.9860   14.3360 O.2   137  CYS137     -0.2867
     47  CB        41.3120   -3.2950   14.6290 C.3   137  CYS137      0.0956
     48  SG        40.8290   -3.6020   12.8720 S.3   137  CYS137     -0.0801
     49  N         44.8570   -5.2230   10.5330 N.3   139  MET139     -0.1245
     50  CA        44.5270   -4.8470    9.1450 C.3   139  MET139      0.1570
     51  C         45.5280   -5.4190    8.1500 C.2   139  MET139      0.2261
     52  O         46.7360   -5.3560    8.4150 O.2   139  MET139     -0.2867
     53  CB        44.4390   -3.3020    9.0190 C.3   139  MET139      0.0387
     54  CG        43.8370   -2.9870    7.6400 C.3   139  MET139      0.0595
     55  SD        43.9710   -1.1490    7.4540 S.3   139  MET139     -0.1393
     56  CE        45.6910   -1.1110    6.9130 C.3   139  MET139      0.0692
     57  N         40.2460   -6.6800    9.6580 N.3   185  ASP185     -0.1295
     58  CA        39.9170   -5.6490    8.6460 C.3   185  ASP185      0.1359
     59  C         40.7320   -5.9240    7.3730 C.3   185  ASP185      0.2015
     60  O         41.9490   -5.8430    7.5190 O.3   185  ASP185     -0.2188
     61  CB        40.3030   -4.2850    9.2460 C.3   185  ASP185      0.1357
     62  CG        40.0140   -3.1150    8.3610 C.2   185  ASP185      0.3664
     63  OD1       39.9700   -3.2660    7.1420 O.co2 185  ASP185     -0.2456
     64  OD2       39.8220   -2.0060    8.8960 O.co2 185  ASP185     -0.2456
     65  N         40.8020   -2.0290    2.8660 N.3   188  PHE188     -0.1241
     66  CA        40.4690   -1.4870    1.5220 C.3   188  PHE188      0.1605
     67  C         41.3850   -0.3050    1.2050 C.2   188  PHE188      0.2264
     68  O         41.6110    0.5830    2.0240 O.2   188  PHE188     -0.2867
     69  CB        38.9970   -1.0690    1.4720 C.3   188  PHE188      0.0534
     70  CG        38.0660   -2.2360    1.5870 C.ar  188  PHE188     -0.0203
     71  CD1       37.8240   -3.0380    0.4640 C.ar  188  PHE188     -0.0042
     72  CD2       37.4570   -2.5480    2.8010 C.ar  188  PHE188     -0.0042
     73  CE1       37.0090   -4.1570    0.5570 C.ar  188  PHE188     -0.0003
     74  CE2       36.5970   -3.6210    2.8930 C.ar  188  PHE188     -0.0003
     75  CZ        36.4050   -4.4590    1.7850 C.ar  188  PHE188     -0.0000
     76  N         44.4930   -0.4210    0.6810 N.3   190  PHE190     -0.1241
     77  CA        45.9330   -0.5060    1.0710 C.3   190  PHE190      0.1605
     78  C         46.6920   -1.5900    0.3190 C.2   190  PHE190      0.2264
     79  O         46.5650   -2.7420    0.7410 O.2   190  PHE190     -0.2867
     80  CB        46.1220   -0.6930    2.5850 C.3   190  PHE190      0.0534
     81  CG        45.6770    0.4840    3.4220 C.ar  190  PHE190     -0.0203
     82  CD1       46.5620    1.5310    3.6810 C.ar  190  PHE190     -0.0042
     83  CD2       44.3940    0.4800    3.9810 C.ar  190  PHE190     -0.0042
     84  CE1       46.1730    2.6150    4.4800 C.ar  190  PHE190     -0.0003
     85  CE2       44.0100    1.5700    4.7610 C.ar  190  PHE190     -0.0003
     86  CZ        44.8760    2.6230    5.0070 C.ar  190  PHE190     -0.0000
     87  N         35.8220   -5.3180   10.8440 N.3   215  LEU215     -0.1245
     88  CA        35.7930   -3.8380   10.7510 C.3   215  LEU215      0.1561
     89  C         36.1700   -3.4710    9.3060 C.2   215  LEU215      0.2260
     90  O         37.0910   -4.1240    8.7940 O.2   215  LEU215     -0.2867
     91  CB        36.7410   -3.3260   11.7890 C.3   215  LEU215      0.0270
     92  CG        36.8690   -1.8650   12.1530 C.3   215  LEU215      0.0019
     93  CD1       37.8710   -1.7420   13.3100 C.3   215  LEU215      0.0001
     94  CD2       37.3950   -1.0920   10.9600 C.3   215  LEU215      0.0001
     95  N         36.5830   -0.0610    6.1940 N.3   217  GLY217     -0.1225
     96  CA        36.7290    1.3800    6.0250 C.3   217  GLY217      0.1811
     97  C         36.9070    1.6630    4.5160 C.2   217  GLY217      0.2280
     98  O         38.0250    1.4360    4.0290 O.2   217  GLY217     -0.2866
     99  N         37.0820    6.5560   -0.2060 N.3   221  LYS221     -0.1245
    100  CA        38.3360    6.0090   -0.7460 C.3   221  LYS221      0.1561
    101  C         38.3110    5.9610   -2.2760 C.2   221  LYS221      0.2260
    102  O         37.3310    6.1300   -2.9990 O.2   221  LYS221     -0.2867
    103  CB        38.7540    4.6360   -0.1680 C.3   221  LYS221      0.0271
    104  CG        39.3720    4.8400    1.2490 C.3   221  LYS221      0.0035
    105  CD        39.7360    3.5280    1.9400 C.3   221  LYS221      0.0206
    106  CE        40.4820    3.7490    3.2620 C.3   221  LYS221      0.1093
    107  NZ        40.5150    2.4560    4.0160 N.3   221  LYS221     -0.1314
    108  N         33.8220    2.2030    9.3430 N.3   255  ARG255     -0.1245
    109  CA        34.5450    3.4670    9.6210 C.3   255  ARG255      0.1563
    110  C         34.1470    4.4920    8.5840 C.2   255  ARG255      0.2260
    111  O         34.4040    4.2840    7.3850 O.2   255  ARG255     -0.2867
    112  CB        36.0580    3.2430    9.6530 C.3   255  ARG255      0.0307
    113  CG        36.9890    4.3650   10.0800 C.3   255  ARG255      0.0489
    114  CD        38.3970    3.8300   10.2630 C.3   255  ARG255      0.2205
    115  NE        39.3060    4.9380   10.5420 N.pl3 255  ARG255     -0.0865
    116  CZ        39.7860    5.8300    9.6800 C.cat 255  ARG255      0.5346
    117  NH1       39.5250    5.7150    8.3790 N.pl3 255  ARG255      0.1354
    118  NH2       40.5190    6.8750   10.1130 N.pl3 255  ARG255      0.1354
@<TRIPOS>BOND
     1   102   101    2
     2   101   100    1
     3   100    99    1
     4   100   103    1
     5   103   104    1
     6    78    79    2
     7    78    77    1
     8    71    73   ar
     9    71    70   ar
    10    73    75   ar
    11    76    77    1
    12    77    80    1
    13    67    66    1
    14    67    68    2
    15   104   105    1
    16    69    66    1
    17    69    70    1
    18    66    65    1
    19    70    72   ar
    20    75    74   ar
    21   105   106    1
    22    10    11    2
    23    10     9    1
    24    80    81    1
    25    12     9    1
    26    12    13    1
    27    72    74   ar
    28     9     8    1
    29   106   107    1
    30    14    13    1
    31    14    15    1
    32    17    16    1
    33    81    82   ar
    34    81    83   ar
    35    82    84   ar
    36    83    85   ar
    37    16    15    2
    38    16    18    1
    39    98    97    2
    40     4     3    2
    41     8     3   am
    42    84    86   ar
    43    97    96    1
    44    85    86   ar
    45     3     2    1
    46    96    95    1
    47     2     1    1
    48     2     5    1
    49    56    55    1
    50    63    62   ar
    51     5     6    1
    52     5     7    1
    53    59    60    1
    54    59    58    1
    55   111   110    2
    56    55    54    1
    57    54    53    1
    58    51    52    2
    59    51    50    1
    60    62    64   ar
    61    62    61    1
    62   117   116    1
    63   110   109    1
    64    58    61    1
    65    58    57    1
    66    90    89    2
    67    53    50    1
    68    50    49    1
    69    38    37    2
    70    40    39    1
    71    40    42    1
    72    89    88    1
    73   108   109    1
    74    39    41    1
    75    39    36    1
    76   109   112    1
    77   112   113    1
    78   116   118    1
    79   116   115    2
    80   113   114    1
    81   114   115    1
    82    37    36    1
    83    36    35    1
    84    88    87    1
    85    88    91    1
    86    94    92    1
    87    91    92    1
    88    92    93    1
    89    26    24   ar
    90    25    24   ar
    91    48    47    1
    92    24    23    1
    93    33    32    2
    94    34    32   am
    95    32    31    1
    96    45    46    2
    97    45    44    1
    98    23    20    1
    99    47    44    1
   100    30    29    2
   101    29    28    1
   102    22    21    2
   103    44    43    1
   104    31    28    1
   105    20    21    1
   106    20    19    1
   107    28    27    1
