@<TRIPOS>MOLECULE
tmp/1aj2A00.pdb
 165 151 0 0 0
SMALL
GASTEIGER

@<TRIPOS>ATOM
      1  N         34.8580    9.2100   12.2320 N.3    20  ILE20      -0.1245
      2  CA        36.2880    9.5130   12.1190 C.3    20  ILE20       0.1561
      3  C         36.6290   10.9130   12.6970 C.2    20  ILE20       0.2260
      4  O         35.8970   11.8730   12.4240 O.2    20  ILE20      -0.2867
      5  CB        36.7150    9.3910   10.5930 C.3    20  ILE20       0.0252
      6  CG1       36.3800    8.0090   10.0310 C.3    20  ILE20       0.0019
      7  CG2       38.2090    9.5200   10.4750 C.3    20  ILE20       0.0019
      8  CD1       36.5540    7.8240    8.5660 C.3    20  ILE20       0.0001
      9  N         40.2100   12.9720   12.8650 N.3    22  ASN22      -0.1240
     10  CA        41.6350   12.8550   12.6000 C.3    22  ASN22       0.1653
     11  C         42.1650   14.1100   13.2610 C.2    22  ASN22       0.2266
     12  O         41.5330   15.1340   13.0170 O.2    22  ASN22      -0.2867
     13  CB        41.9130   12.8480   11.0700 C.3    22  ASN22       0.1155
     14  CG        41.5790   11.5670   10.3100 C.2    22  ASN22       0.2627
     15  OD1       41.3710   10.5240   10.9320 O.2    22  ASN22      -0.2716
     16  ND2       41.5640   11.5690    8.9900 N.am   22  ASN22      -0.0877
     17  N         47.5700   10.4080   12.5780 N.3    60  GLU60      -0.1231
     18  CA        48.3810   10.3020   11.3860 C.3    60  GLU60       0.1699
     19  C         47.3360   10.2700   10.2930 C.2    60  GLU60       0.2593
     20  O         46.1530    9.9450   10.5010 O.2    60  GLU60      -0.2718
     21  CB        49.1590    9.0020   11.3110 C.3    60  GLU60       0.0402
     22  CG        50.6860    8.8530   11.6410 C.3    60  GLU60       0.1161
     23  CD        51.3460    7.5780   11.0590 C.2    60  GLU60       0.3649
     24  OE1       50.6590    6.5260   11.0950 O.co2  60  GLU60      -0.2457
     25  OE2       52.5080    7.6220   10.5390 O.co2  60  GLU60      -0.2457
     26  N         47.8100   10.7180    9.1540 N.am   61  SER61      -0.1938
     27  CA        47.1070   10.5120    7.9290 C.3    61  SER61       0.2055
     28  C         47.8740    9.3380    7.3300 C.2    61  SER61       0.2644
     29  O         49.0600    9.1420    7.5890 O.2    61  SER61      -0.2714
     30  CB        47.2490   11.6680    7.0220 C.3    61  SER61       0.2130
     31  OG        46.7770   11.3230    5.7280 O.3    61  SER61      -0.2179
     32  N         47.2270    8.5480    6.5020 N.am   62  THR62      -0.1936
     33  CA        47.8520    7.4220    5.8430 C.3    62  THR62       0.2028
     34  C         47.6580    7.5820    4.3580 C.2    62  THR62       0.2642
     35  O         48.0520    6.7030    3.6060 O.2    62  THR62      -0.2714
     36  CB        47.2630    6.0230    6.3520 C.3    62  THR62       0.1808
     37  OG1       45.8670    6.0210    6.7640 O.3    62  THR62      -0.2208
     38  CG2       48.1130    5.6570    7.5730 C.3    62  THR62       0.0379
     39  N         47.1470    8.6980    3.8420 N.am   63  ARG63      -0.1977
     40  CA        47.0230    8.8340    2.3850 C.3    63  ARG63       0.1597
     41  C         48.4350    8.8480    1.7650 C.2    63  ARG63       0.2287
     42  O         49.4090    9.0160    2.5050 O.2    63  ARG63      -0.2864
     43  CB        46.2220   10.1130    2.1240 C.3    63  ARG63       0.0334
     44  CG        44.9230   10.0470    2.8690 C.3    63  ARG63       0.0492
     45  CD        44.0230   11.2430    2.6180 C.3    63  ARG63       0.2205
     46  NE        43.3170   11.6750    3.8400 N.pl3  63  ARG63      -0.0865
     47  CZ        42.0110   11.9940    3.9840 C.cat  63  ARG63       0.5346
     48  NH1       41.1170   11.9490    2.9780 N.pl3  63  ARG63       0.1354
     49  NH2       41.6010   12.4080    5.1930 N.pl3  63  ARG63       0.1354
     50  N         43.6660    5.3260   16.7490 N.3    96  ASP96      -0.1239
     51  CA        44.3180    4.8430   15.5650 C.3    96  ASP96       0.1674
     52  C         45.7630    5.2950   15.6340 C.2    96  ASP96       0.2266
     53  O         46.1680    6.3090   15.0400 O.2    96  ASP96      -0.2867
     54  CB        43.5910    5.4040   14.3530 C.3    96  ASP96       0.1410
     55  CG        43.9450    4.7870   13.0090 C.2    96  ASP96       0.3668
     56  OD1       45.1430    4.5190   12.7140 O.co2  96  ASP96      -0.2456
     57  OD2       42.9880    4.6060   12.2130 O.co2  96  ASP96      -0.2456
     58  N         43.1790    0.4970   17.3050 N.3   115  ASN115     -0.1240
     59  CA        42.8730    0.3490   15.9050 C.3   115  ASN115      0.1653
     60  C         44.0740    0.8160   15.0740 C.2   115  ASN115      0.2266
     61  O         44.0640    1.7710   14.3150 O.2   115  ASN115     -0.2867
     62  CB        41.6360    1.1670   15.5210 C.3   115  ASN115      0.1155
     63  CG        41.3850    1.1190   14.0280 C.2   115  ASN115      0.2627
     64  OD1       41.7600    0.1730   13.3200 O.2   115  ASN115     -0.2716
     65  ND2       40.7280    2.1140   13.4850 N.am  115  ASN115     -0.0877
     66  N         46.2460    0.5180   12.0690 N.3   117  ILE117     -0.1245
     67  CA        46.2440   -0.0100   10.7070 C.3   117  ILE117      0.1561
     68  C         47.5160   -0.7670   10.3920 C.2   117  ILE117      0.2260
     69  O         47.5400   -1.5420    9.4520 O.2   117  ILE117     -0.2867
     70  CB        46.0650    1.1230    9.6350 C.3   117  ILE117      0.0252
     71  CG1       47.0460    2.3210    9.7520 C.3   117  ILE117      0.0019
     72  CG2       44.6560    1.6150    9.8240 C.3   117  ILE117      0.0019
     73  CD1       48.1910    2.2760    8.7650 C.3   117  ILE117      0.0001
     74  N         42.3030   -4.1690   16.5740 N.3   137  CYS137     -0.1292
     75  CA        41.7880   -4.4530   15.2630 C.3   137  CYS137      0.1363
     76  C         42.9720   -4.8760   14.4030 C.3   137  CYS137      0.2019
     77  O         43.9700   -4.1600   14.5270 O.3   137  CYS137     -0.2188
     78  CB        41.1120   -3.2050   14.6730 C.3   137  CYS137      0.0903
     79  SG        40.7110   -3.5620   12.9350 S.3   137  CYS137     -0.0805
     80  N         44.4980   -5.4070   10.5370 N.3   139  MET139     -0.1245
     81  CA        44.1660   -4.9860    9.1710 C.3   139  MET139      0.1570
     82  C         45.1410   -5.4670    8.1170 C.2   139  MET139      0.2261
     83  O         46.3450   -5.4270    8.2960 O.2   139  MET139     -0.2867
     84  CB        44.0770   -3.4380    9.1110 C.3   139  MET139      0.0387
     85  CG        43.3720   -2.8660    7.8550 C.3   139  MET139      0.0595
     86  SD        43.6300   -1.0970    7.5980 S.3   139  MET139     -0.1393
     87  CE        45.2540   -1.1200    6.8360 C.3   139  MET139      0.0692
     88  N         39.9150   -6.7700    9.7050 N.3   185  ASP185     -0.1239
     89  CA        39.5530   -5.7210    8.7410 C.3   185  ASP185      0.1674
     90  C         40.3200   -5.9430    7.4460 C.2   185  ASP185      0.2266
     91  O         41.5500   -5.8230    7.4970 O.2   185  ASP185     -0.2867
     92  CB        39.9270   -4.3560    9.3550 C.3   185  ASP185      0.1410
     93  CG        39.7170   -3.1000    8.5530 C.2   185  ASP185      0.3668
     94  OD1       39.7620   -3.0620    7.3240 O.co2 185  ASP185     -0.2456
     95  OD2       39.4690   -2.0910    9.1880 O.co2 185  ASP185     -0.2456
     96  N         40.4820   -2.0670    3.0190 N.3   188  PHE188     -0.1241
     97  CA        40.0270   -1.5720    1.7120 C.3   188  PHE188      0.1605
     98  C         40.8810   -0.3800    1.2890 C.2   188  PHE188      0.2264
     99  O         41.1110    0.5160    2.0900 O.2   188  PHE188     -0.2867
    100  CB        38.5710   -1.1690    1.7800 C.3   188  PHE188      0.0534
    101  CG        37.7010   -2.3920    1.6440 C.ar  188  PHE188     -0.0203
    102  CD1       37.5730   -3.0200    0.4120 C.ar  188  PHE188     -0.0042
    103  CD2       37.0110   -2.9130    2.7370 C.ar  188  PHE188     -0.0042
    104  CE1       36.7840   -4.1360    0.2540 C.ar  188  PHE188     -0.0003
    105  CE2       36.2160   -4.0350    2.5780 C.ar  188  PHE188     -0.0003
    106  CZ        36.1040   -4.6440    1.3350 C.ar  188  PHE188     -0.0000
    107  N         44.2470   -0.5490    0.9000 N.3   190  PHE190     -0.1241
    108  CA        45.6580   -0.5920    1.2600 C.3   190  PHE190      0.1605
    109  C         46.4010   -1.7060    0.5080 C.2   190  PHE190      0.2264
    110  O         46.4360   -2.8880    0.8530 O.2   190  PHE190     -0.2867
    111  CB        45.7880   -0.7720    2.7760 C.3   190  PHE190      0.0534
    112  CG        45.2530    0.3630    3.6070 C.ar  190  PHE190     -0.0203
    113  CD1       43.9040    0.4040    3.9980 C.ar  190  PHE190     -0.0042
    114  CD2       46.1130    1.3670    4.0600 C.ar  190  PHE190     -0.0042
    115  CE1       43.4370    1.4230    4.8190 C.ar  190  PHE190     -0.0003
    116  CE2       45.6330    2.3840    4.8860 C.ar  190  PHE190     -0.0003
    117  CZ        44.3020    2.4090    5.2610 C.ar  190  PHE190     -0.0000
    118  N         35.5590   -5.3200   10.9350 N.3   215  LEU215     -0.1245
    119  CA        35.5310   -3.8460   10.9070 C.3   215  LEU215      0.1561
    120  C         35.7510   -3.4750    9.4340 C.2   215  LEU215      0.2260
    121  O         36.5910   -4.0710    8.8060 O.2   215  LEU215     -0.2867
    122  CB        36.6660   -3.2580   11.7920 C.3   215  LEU215      0.0270
    123  CG        36.7480   -1.7530   12.2090 C.3   215  LEU215      0.0019
    124  CD1       37.9190   -1.5290   13.1330 C.3   215  LEU215      0.0001
    125  CD2       36.9840   -0.8710   11.0480 C.3   215  LEU215      0.0001
    126  N         36.4450   -0.1860    6.5080 N.3   217  GLY217     -0.1225
    127  CA        36.6600    1.2240    6.2670 C.3   217  GLY217      0.1811
    128  C         36.6980    1.5000    4.7960 C.2   217  GLY217      0.2280
    129  O         37.6470    1.1430    4.1380 O.2   217  GLY217     -0.2866
    130  N         34.8240    4.6310    3.4270 N.3   219  SER219     -0.1217
    131  CA        34.3480    6.0020    3.2290 C.3   219  SER219      0.1889
    132  C         35.2430    6.8570    2.2900 C.2   219  SER219      0.2288
    133  O         36.4430    7.0250    2.5410 O.2   219  SER219     -0.2866
    134  CB        34.2100    6.6800    4.6410 C.3   219  SER219      0.2089
    135  OG        33.3130    7.8130    4.7540 O.3   219  SER219     -0.2183
    136  N         36.9420    6.6090   -0.3090 N.3   221  LYS221     -0.1245
    137  CA        38.1330    6.0820   -0.9400 C.3   221  LYS221      0.1561
    138  C         38.0620    5.9930   -2.4690 C.2   221  LYS221      0.2260
    139  O         37.0220    6.0820   -3.1350 O.2   221  LYS221     -0.2867
    140  CB        38.4050    4.7370   -0.3310 C.3   221  LYS221      0.0271
    141  CG        39.0260    4.9180    1.0310 C.3   221  LYS221      0.0035
    142  CD        39.1260    3.5950    1.7560 C.3   221  LYS221      0.0206
    143  CE        40.1270    3.6900    2.8570 C.3   221  LYS221      0.1093
    144  NZ        39.9100    2.6140    3.8510 N.3   221  LYS221     -0.1314
    145  N         33.5110    2.1230    9.5270 N.3   255  ARG255     -0.1245
    146  CA        34.2180    3.3640    9.8590 C.3   255  ARG255      0.1563
    147  C         33.9360    4.4350    8.7880 C.2   255  ARG255      0.2260
    148  O         34.4550    4.3530    7.6670 O.2   255  ARG255     -0.2867
    149  CB        35.7180    3.0650    9.9360 C.3   255  ARG255      0.0307
    150  CG        36.5410    4.2580   10.3170 C.3   255  ARG255      0.0489
    151  CD        37.9590    3.8070   10.2180 C.3   255  ARG255      0.2205
    152  NE        38.8850    4.8950   10.4790 N.pl3 255  ARG255     -0.0865
    153  CZ        39.3930    5.7320    9.5980 C.cat 255  ARG255      0.5346
    154  NH1       39.0860    5.6480    8.3120 N.pl3 255  ARG255      0.1354
    155  NH2       40.1820    6.6810   10.0640 N.pl3 255  ARG255      0.1354
    156  N         32.9500    8.8400    7.4570 N.3   257  HIS257     -0.1241
    157  CA        33.0300   10.2840    7.6580 C.3   257  HIS257      0.1621
    158  C         31.6150   10.8090    7.7820 C.2   257  HIS257      0.2264
    159  O         31.3550   11.6870    8.5790 O.2   257  HIS257     -0.2867
    160  CB        33.6480   11.0340    6.4960 C.3   257  HIS257      0.0745
    161  CG        35.0220   10.5930    6.1920 C.ar  257  HIS257      0.0817
    162  ND1       35.3020    9.6560    5.2390 N.ar  257  HIS257     -0.2268
    163  CD2       36.2110   10.9710    6.6780 C.ar  257  HIS257      0.1154
    164  CE1       36.6010    9.4570    5.1290 C.ar  257  HIS257      0.1986
    165  NE2       37.1640   10.2550    6.0040 N.ar  257  HIS257     -0.2212
@<TRIPOS>BOND
     1   139   138    2
     2   138   137    1
     3   137   140    1
     4   137   136    1
     5   140   141    1
     6   104   102   ar
     7   104   106   ar
     8   102   101   ar
     9   109   110    2
    10   109   108    1
    11   107   108    1
    12   141   142    1
    13   108   111    1
    14    98    97    1
    15    98    99    2
    16   106   105   ar
    17   101   100    1
    18   101   103   ar
    19    97   100    1
    20    97    96    1
    21   142   143    1
    22    41    40    1
    23    41    42    2
    24    43    40    1
    25    43    44    1
    26   132   133    2
    27   132   131    1
    28    40    39    1
    29   105   103   ar
    30    45    44    1
    31    45    46    1
    32   111   112    1
    33   143   144    1
    34    48    47    1
    35   131   130    1
    36   131   134    1
    37    35    34    2
    38   112   113   ar
    39   112   114   ar
    40    46    47    2
    41    39    34   am
    42    47    49    1
    43   113   115   ar
    44   114   116   ar
    45   129   128    2
    46    34    33    1
    47   134   135    1
    48   128   127    1
    49   115   117   ar
    50   116   117   ar
    51   164   162   ar
    52   164   165   ar
    53   162   161   ar
    54    31    30    1
    55    33    36    1
    56    33    32    1
    57   165   163   ar
    58   161   160    1
    59   161   163   ar
    60   127   126    1
    61    36    37    1
    62    36    38    1
    63   160   157    1
    64    32    28   am
    65    87    86    1
    66    30    27    1
    67    94    93   ar
    68    28    29    2
    69    28    27    1
    70    90    91    2
    71    90    89    1
    72   156   157    1
    73    86    85    1
    74   157   158    1
    75   148   147    2
    76   158   159    2
    77    85    84    1
    78    27    26    1
    79    82    83    2
    80    82    81    1
    81   154   153    1
    82    93    95   ar
    83    93    92    1
    84     8     6    1
    85    89    92    1
    86    89    88    1
    87    73    71    1
    88   147   146    1
    89   121   120    2
    90    16    14   am
    91    84    81    1
    92    26    19   am
    93    81    80    1
    94   120   119    1
    95    69    68    2
    96   145   146    1
    97   153   155    1
    98   153   152    2
    99    70    71    1
   100    70    72    1
   101    70    67    1
   102   146   149    1
   103   149   150    1
   104     6     5    1
   105   151   150    1
   106   151   152    1
   107    19    20    2
   108    19    18    1
   109    14    15    2
   110    14    13    1
   111    68    67    1
   112     7     5    1
   113    25    23   ar
   114     5     2    1
   115    67    66    1
   116   119   118    1
   117   119   122    1
   118   125   123    1
   119    23    24   ar
   120    23    22    1
   121    13    10    1
   122    21    18    1
   123    21    22    1
   124    18    17    1
   125   122   123    1
   126     2     1    1
   127     2     3    1
   128   123   124    1
   129    57    55   ar
   130     4     3    2
   131    10     9    1
   132    10    11    1
   133    56    55   ar
   134    79    78    1
   135    55    54    1
   136    12    11    2
   137    64    63    2
   138    65    63   am
   139    63    62    1
   140    61    60    2
   141    54    51    1
   142    76    77    1
   143    76    75    1
   144    78    75    1
   145    53    52    2
   146    60    59    1
   147    75    74    1
   148    62    59    1
   149    51    52    1
   150    51    50    1
   151    59    58    1
