@<TRIPOS>MOLECULE
tmp/1aj6A00.pdb
 129 119 0 0 0
SMALL
GASTEIGER

@<TRIPOS>ATOM
      1  N         56.8410    5.0920   41.2840 N.3    32  VAL32      -0.1245
      2  CA        57.5360    3.9470   41.8630 C.3    32  VAL32       0.1561
      3  C         56.5500    2.9420   42.5280 C.2    32  VAL32       0.2260
      4  O         56.5960    1.7360   42.2830 O.2    32  VAL32      -0.2867
      5  CB        58.6170    4.4450   42.8560 C.3    32  VAL32       0.0252
      6  CG1       59.3610    3.2770   43.5220 C.3    32  VAL32       0.0019
      7  CG2       59.6190    5.2950   42.1130 C.3    32  VAL32       0.0019
      8  N         54.6080    1.0130   40.2160 N.3    35  ASN35      -0.1225
      9  CA        55.3280   -0.0970   39.6130 C.3    35  ASN35       0.1785
     10  C         55.1560   -1.3200   40.4860 C.2    35  ASN35       0.2597
     11  O         54.9290   -2.4180   39.9790 O.2    35  ASN35      -0.2718
     12  CB        56.8110    0.2100   39.4220 C.3    35  ASN35       0.1169
     13  CG        57.0610    1.1720   38.2760 C.2    35  ASN35       0.2627
     14  OD1       56.2000    1.9700   37.9170 O.2    35  ASN35      -0.2716
     15  ND2       58.2590    1.1530   37.7780 N.am   35  ASN35      -0.0877
     16  N         55.2380   -1.1230   41.7980 N.am   36  ALA36      -0.1979
     17  CA        55.0790   -2.2230   42.7280 C.3    36  ALA36       0.1597
     18  C         53.6550   -2.7470   42.7000 C.2    36  ALA36       0.2287
     19  O         53.4160   -3.9520   42.7880 O.2    36  ALA36      -0.2864
     20  CB        55.4350   -1.7920   44.1120 C.3    36  ALA36       0.0319
     21  N         51.7170   -2.8180   40.2850 N.3    38  ASP38      -0.1225
     22  CA        51.5230   -3.6160   39.0700 C.3    38  ASP38       0.1805
     23  C         52.0330   -5.0330   39.2740 C.2    38  ASP38       0.2597
     24  O         51.3730   -5.9960   38.8510 O.2    38  ASP38      -0.2718
     25  CB        52.1500   -2.9670   37.8630 C.3    38  ASP38       0.1424
     26  CG        51.6640   -3.5140   36.5410 C.2    38  ASP38       0.3668
     27  OD1       50.7810   -4.3550   36.4750 O.co2  38  ASP38      -0.2456
     28  OD2       52.0840   -2.9980   35.5030 O.co2  38  ASP38      -0.2456
     29  N         53.1730   -5.1730   39.9710 N.am   39  GLU39      -0.1979
     30  CA        53.7220   -6.5070   40.3020 C.3    39  GLU39       0.1602
     31  C         52.7450   -7.2990   41.2280 C.2    39  GLU39       0.2287
     32  O         52.6290   -8.5350   41.1850 O.2    39  GLU39      -0.2864
     33  CB        55.1040   -6.3580   40.9410 C.3    39  GLU39       0.0415
     34  CG        55.8030   -7.6800   41.2890 C.3    39  GLU39       0.1163
     35  CD        56.3370   -8.4340   40.0910 C.2    39  GLU39       0.3649
     36  OE1       56.0770   -7.9930   38.9570 O.co2  39  GLU39      -0.2457
     37  OE2       56.9640   -9.5170   40.2840 O.co2  39  GLU39      -0.2457
     38  N         59.4460   -3.8840   47.8330 N.3    62  ASP62      -0.1239
     39  CA        58.3880   -4.8800   47.5160 C.3    62  ASP62       0.1674
     40  C         58.9040   -6.3840   47.5950 C.2    62  ASP62       0.2266
     41  O         60.1160   -6.6300   47.7080 O.2    62  ASP62      -0.2867
     42  CB        57.5920   -4.5120   46.2350 C.3    62  ASP62       0.1410
     43  CG        58.4020   -4.7090   44.9620 C.2    62  ASP62       0.3668
     44  OD1       58.8110   -5.8700   44.7590 O.co2  62  ASP62      -0.2456
     45  OD2       58.6520   -3.7190   44.1920 O.co2  62  ASP62      -0.2456
     46  N         58.8560  -10.3900   42.2300 N.3    65  ARG65      -0.1231
     47  CA        59.9440  -11.1320   41.6050 C.3    65  ARG65       0.1694
     48  C         61.3350  -10.5410   41.5820 C.2    65  ARG65       0.2593
     49  O         62.2960  -11.3080   41.5570 O.2    65  ARG65      -0.2718
     50  CB        59.5770  -11.5750   40.1920 C.3    65  ARG65       0.0321
     51  CG        58.3970  -12.5500   40.1170 C.3    65  ARG65       0.0489
     52  CD        57.8540  -12.6420   38.6780 C.3    65  ARG65       0.2205
     53  NE        57.2830  -11.3570   38.2540 N.pl3  65  ARG65      -0.0865
     54  CZ        56.6400  -11.1600   37.1150 C.cat  65  ARG65       0.5346
     55  NH1       56.4300  -12.1590   36.2780 N.pl3  65  ARG65       0.1354
     56  NH2       56.2170   -9.9550   36.8100 N.pl3  65  ARG65       0.1354
     57  N         61.4530   -9.2030   41.5880 N.am   66  GLY66      -0.1942
     58  CA        62.7520   -8.5210   41.5010 C.3    66  GLY66       0.2014
     59  C         62.9700   -8.3070   39.9950 C.2    66  GLY66       0.2639
     60  O         62.7920   -9.2300   39.2330 O.2    66  GLY66      -0.2714
     61  N         63.2560   -7.0810   39.5490 N.am   67  ILE67      -0.1963
     62  CA        63.4610   -6.7980   38.1110 C.3    67  ILE67       0.1712
     63  C         64.5830   -7.7370   37.5730 C.2    67  ILE67       0.2458
     64  O         65.6220   -7.8610   38.2090 O.2    67  ILE67      -0.2730
     65  CB        63.8810   -5.2890   37.8910 C.3    67  ILE67       0.0289
     66  CG1       62.9220   -4.3140   38.6020 C.3    67  ILE67       0.0022
     67  CG2       64.1150   -4.9480   36.3970 C.3    67  ILE67       0.0023
     68  CD1       63.2560   -2.8260   38.3610 C.3    67  ILE67       0.0001
     69  N         64.3710   -8.4210   36.4380 N.am   68  PRO68      -0.2727
     70  CA        65.3890   -9.3580   35.9540 C.3    68  PRO68       0.1402
     71  C         66.7720   -8.7480   35.9760 C.2    68  PRO68       0.2269
     72  O         66.9730   -7.6140   35.5590 O.2    68  PRO68      -0.2865
     73  CB        64.9300   -9.6700   34.5340 C.3    68  PRO68       0.0296
     74  CG        63.3900   -9.6480   34.6600 C.3    68  PRO68       0.0237
     75  CD        63.0800   -8.6050   35.7190 C.3    68  PRO68       0.0939
     76  N         69.9770  -10.5710   35.0000 N.3    70  GLY70      -0.1210
     77  CA        70.9090  -10.9320   33.9390 C.3    70  GLY70       0.1956
     78  C         71.1000   -9.9020   32.8170 C.2    70  GLY70       0.2611
     79  O         70.2710   -8.9970   32.6360 O.2    70  GLY70      -0.2717
     80  N         72.1440  -10.1020   32.0240 N.am   71  ILE71      -0.1979
     81  CA        72.4330   -9.2880   30.8340 C.3    71  ILE71       0.1595
     82  C         71.3460   -9.4530   29.7580 C.2    71  ILE71       0.2287
     83  O         70.8260  -10.5600   29.5330 O.2    71  ILE71      -0.2864
     84  CB        73.8030   -9.6640   30.2100 C.3    71  ILE71       0.0276
     85  CG1       74.7180  -10.3540   31.2410 C.3    71  ILE71       0.0022
     86  CG2       74.4660   -8.4430   29.6610 C.3    71  ILE71       0.0022
     87  CD1       75.0320   -9.5200   32.4730 C.3    71  ILE71       0.0001
     88  N         69.0570   -5.8840   32.1680 N.3    74  ALA74      -0.1245
     89  CA        67.7410   -5.4430   31.7640 C.3    74  ALA74       0.1562
     90  C         67.2530   -4.4360   32.7890 C.2    74  ALA74       0.2260
     91  O         66.5270   -3.4940   32.4660 O.2    74  ALA74      -0.2867
     92  CB        66.7730   -6.6550   31.6560 C.3    74  ALA74       0.0290
     93  N         65.7040   -0.6910   32.2730 N.3    78  ILE78      -0.1231
     94  CA        64.4420   -0.1490   32.8290 C.3    78  ILE78       0.1692
     95  C         64.7190    1.1560   33.5580 C.2    78  ILE78       0.2591
     96  O         63.9090    2.0650   33.5670 O.2    78  ILE78      -0.2718
     97  CB        63.7520   -1.1480   33.8260 C.3    78  ILE78       0.0266
     98  CG1       63.2620   -2.4280   33.1000 C.3    78  ILE78       0.0019
     99  CG2       62.6280   -0.5000   34.6210 C.3    78  ILE78       0.0020
    100  CD1       62.1130   -2.2230   32.1380 C.3    78  ILE78       0.0001
    101  N         65.8700    1.2430   34.2000 N.am   79  MET79      -0.1979
    102  CA        66.1770    2.4420   34.9540 C.3    79  MET79       0.1605
    103  C         66.6510    3.6130   34.1180 C.2    79  MET79       0.2287
    104  O         66.5970    4.7320   34.5950 O.2    79  MET79      -0.2864
    105  CB        67.2350    2.1150   36.0020 C.3    79  MET79       0.0413
    106  CG        66.7940    1.0640   37.0050 C.3    79  MET79       0.0598
    107  SD        65.6950    1.8490   38.1610 S.3    79  MET79      -0.1393
    108  CE        64.3350    0.8650   37.9620 C.3    79  MET79       0.0692
    109  N         59.9800    4.4930   35.8350 N.3    97  VAL97      -0.1245
    110  CA        60.9680    4.8130   36.8570 C.3    97  VAL97       0.1561
    111  C         62.2380    5.5070   36.2930 C.2    97  VAL97       0.2260
    112  O         62.9610    6.1740   37.0450 O.2    97  VAL97      -0.2867
    113  CB        61.2540    3.5890   37.7880 C.3    97  VAL97       0.0252
    114  CG1       61.9310    2.4510   37.0490 C.3    97  VAL97       0.0019
    115  CG2       62.0730    4.0130   39.0160 C.3    97  VAL97       0.0019
    116  N         62.1250   -5.9560   45.1350 N.3   142  THR142     -0.1218
    117  CA        62.7860   -4.7620   44.5990 C.3   142  THR142      0.1862
    118  C         62.6690   -3.6780   45.6510 C.2   142  THR142      0.2287
    119  O         61.6170   -3.5160   46.2600 O.2   142  THR142     -0.2866
    120  CB        62.0270   -4.2330   43.3310 C.3   142  THR142      0.1770
    121  OG1       61.9680   -5.2800   42.3570 O.3   142  THR142     -0.2211
    122  CG2       62.7170   -3.0330   42.7190 C.3   142  THR142      0.0375
    123  N         63.7150    0.4060   45.7820 N.3   144  VAL144     -0.1245
    124  CA        64.1870    1.6360   45.1170 C.3   144  VAL144      0.1561
    125  C         64.1790    2.7760   46.1540 C.2   144  VAL144      0.2260
    126  O         63.1730    3.0030   46.8210 O.2   144  VAL144     -0.2867
    127  CB        63.2150    2.1240   43.9830 C.3   144  VAL144      0.0252
    128  CG1       63.4530    3.6270   43.6730 C.3   144  VAL144      0.0019
    129  CG2       63.3940    1.2990   42.7210 C.3   144  VAL144      0.0019
@<TRIPOS>BOND
     1    83    82    2
     2    86    84    1
     3    82    81    1
     4    84    81    1
     5    84    85    1
     6    81    80    1
     7    85    87    1
     8    92    89    1
     9    89    88    1
    10    89    90    1
    11    80    78   am
    12   100    98    1
    13    93    94    1
    14    91    90    2
    15    79    78    2
    16    78    77    1
    17    94    95    1
    18    94    97    1
    19    98    97    1
    20    95    96    2
    21    95   101   am
    22    97    99    1
    23    77    76    1
    24   103   104    2
    25   103   102    1
    26   101   102    1
    27    73    74    1
    28    73    70    1
    29    74    75    1
    30   102   105    1
    31    28    26   ar
    32    72    71    2
    33    75    69    1
    34   109   110    1
    35    70    71    1
    36    70    69    1
    37   105   106    1
    38    55    54    1
    39   111   110    1
    40   111   112    2
    41    67    65    1
    42    69    63   am
    43    27    26   ar
    44    26    25    1
    45    56    54    1
    46   110   113    1
    47   106   107    1
    48   114   113    1
    49    54    53    2
    50    63    62    1
    51    63    64    2
    52    15    13   am
    53   113   115    1
    54    25    22    1
    55    65    62    1
    56    65    66    1
    57    14    13    2
    58   108   107    1
    59    62    61    1
    60    53    52    1
    61    13    12    1
    62    68    66    1
    63    52    51    1
    64    24    23    2
    65    36    35   ar
    66    22    23    1
    67    22    21    1
    68    60    59    2
    69    23    29   am
    70    12     9    1
    71    61    59   am
    72     9     8    1
    73     9    10    1
    74    29    30    1
    75    11    10    2
    76    59    58    1
    77    35    37   ar
    78    35    34    1
    79    51    50    1
    80    50    47    1
    81    30    33    1
    82    30    31    1
    83    10    16   am
    84    33    34    1
    85    32    31    2
    86     1     2    1
    87    58    57    1
    88    49    48    2
    89    48    57   am
    90    48    47    1
    91    47    46    1
    92    16    17    1
    93     2     3    1
    94     2     5    1
    95     7     5    1
    96     4     3    2
    97   121   120    1
    98    18    17    1
    99    18    19    2
   100   122   120    1
   101   129   127    1
   102    17    20    1
   103     5     6    1
   104   120   117    1
   105   128   127    1
   106   127   124    1
   107    45    43   ar
   108   117   116    1
   109   117   118    1
   110    44    43   ar
   111    43    42    1
   112   124   123    1
   113   124   125    1
   114   118   119    2
   115   125   126    2
   116    42    39    1
   117    39    40    1
   118    39    38    1
   119    40    41    2
