@<TRIPOS>MOLECULE
tmp/1aj7B00.pdb
 107 108 0 0 0
SMALL
GASTEIGER

@<TRIPOS>ATOM
      1  N         25.0420   10.0690   38.9420 N.3    33  TYR33      -0.1241
      2  CA        24.4760    8.9840   38.1340 C.3    33  TYR33       0.1605
      3  C         24.7410    9.0640   36.6370 C.2    33  TYR33       0.2264
      4  O         24.1130    9.8380   35.9130 O.2    33  TYR33      -0.2867
      5  CB        22.9700    8.8100   38.3670 C.3    33  TYR33       0.0534
      6  CG        22.5650    8.2670   39.7220 C.ar   33  TYR33      -0.0201
      7  CD1       23.3460    8.4820   40.8550 C.ar   33  TYR33      -0.0009
      8  CD2       21.3710    7.5670   39.8760 C.ar   33  TYR33      -0.0009
      9  CE1       22.9490    8.0170   42.1070 C.ar   33  TYR33       0.0417
     10  CE2       20.9650    7.0970   41.1210 C.ar   33  TYR33       0.0417
     11  CZ        21.7580    7.3260   42.2320 C.ar   33  TYR33       0.1957
     12  OH        21.3610    6.8700   43.4660 O.3    33  TYR33      -0.2866
     13  N         24.7200    6.6220   33.3980 N.3    35  HIS35      -0.1241
     14  CA        24.2150    5.3290   32.9490 C.3    35  HIS35       0.1621
     15  C         24.8090    4.9130   31.6130 C.2    35  HIS35       0.2264
     16  O         25.1720    5.7630   30.7990 O.2    35  HIS35      -0.2867
     17  CB        22.6880    5.3740   32.7940 C.3    35  HIS35       0.0745
     18  CG        21.9570    5.8540   34.0090 C.ar   35  HIS35       0.0817
     19  ND1       21.3200    5.0010   34.8840 N.ar   35  HIS35      -0.2268
     20  CD2       21.7250    7.1080   34.4720 C.ar   35  HIS35       0.1154
     21  CE1       20.7210    5.7050   35.8300 C.ar   35  HIS35       0.1986
     22  NE2       20.9530    6.9860   35.6020 N.ar   35  HIS35      -0.2212
     23  N         24.0130    2.3280   28.2890 N.3    37  VAL37      -0.1245
     24  CA        22.9420    1.6070   27.6090 C.3    37  VAL37       0.1561
     25  C         23.4770    0.9500   26.3370 C.2    37  VAL37       0.2260
     26  O         24.3310    1.5090   25.6500 O.2    37  VAL37      -0.2867
     27  CB        21.7950    2.5930   27.2530 C.3    37  VAL37       0.0252
     28  CG1       20.7050    1.8980   26.4660 C.3    37  VAL37       0.0019
     29  CG2       21.2270    3.2230   28.5210 C.3    37  VAL37       0.0019
     30  N         19.5370   -1.4920   29.3950 N.3    47  TRP47      -0.1241
     31  CA        20.3210   -0.8690   30.4530 C.3    47  TRP47       0.1605
     32  C         21.4230   -1.8100   30.9220 C.2    47  TRP47       0.2264
     33  O         21.1770   -2.9920   31.1720 O.2    47  TRP47      -0.2867
     34  CB        19.4080   -0.5300   31.6290 C.3    47  TRP47       0.0550
     35  CG        20.0340    0.3160   32.7010 C.ar   47  TRP47       0.0003
     36  CD1       20.3070    1.6530   32.6300 C.ar   47  TRP47       0.0946
     37  CD2       20.3560   -0.0860   34.0430 C.ar   47  TRP47       0.0152
     38  NE1       20.7560    2.1100   33.8440 N.ar   47  TRP47      -0.2442
     39  CE2       20.7960    1.0650   34.7300 C.ar   47  TRP47       0.0810
     40  CE3       20.3050   -1.3060   34.7300 C.ar   47  TRP47       0.0012
     41  CZ2       21.1780    1.0360   36.0730 C.ar   47  TRP47       0.0191
     42  CZ3       20.6890   -1.3350   36.0660 C.ar   47  TRP47       0.0001
     43  CH2       21.1190   -0.1700   36.7220 C.ar   47  TRP47       0.0015
     44  N         24.7180    1.7240   36.1130 N.3    50  ARG50      -0.1245
     45  CA        24.9780    3.1370   36.3630 C.3    50  ARG50       0.1563
     46  C         25.9960    3.3030   37.4760 C.2    50  ARG50       0.2260
     47  O         26.2530    2.3680   38.2360 O.2    50  ARG50      -0.2867
     48  CB        23.6760    3.8810   36.7030 C.3    50  ARG50       0.0307
     49  CG        22.9560    3.4590   37.9890 C.3    50  ARG50       0.0489
     50  CD        23.5460    4.1110   39.2410 C.3    50  ARG50       0.2205
     51  NE        22.6920    3.9390   40.4160 N.pl3  50  ARG50      -0.0865
     52  CZ        23.1350    3.8330   41.6670 C.cat  50  ARG50       0.5346
     53  NH1       24.4350    3.8760   41.9300 N.pl3  50  ARG50       0.1354
     54  NH2       22.2710    3.6770   42.6620 N.pl3  50  ARG50       0.1354
     55  N         24.4250    8.1230   29.5310 N.3    97  ALA97      -0.1231
     56  CA        23.3860    9.1010   29.8350 C.3    97  ALA97       0.1694
     57  C         23.5750    9.6810   31.2290 C.2    97  ALA97       0.2593
     58  O         24.0660    9.0000   32.1280 O.2    97  ALA97      -0.2718
     59  CB        22.0080    8.4550   29.7130 C.3    97  ALA97       0.0304
     60  N         23.1960   10.9420   31.3990 N.am   98  SER98      -0.1938
     61  CA        23.3240   11.6270   32.6810 C.3    98  SER98       0.2055
     62  C         22.1200   11.3710   33.5890 C.2    98  SER98       0.2643
     63  O         21.2550   10.5380   33.2820 O.2    98  SER98      -0.2714
     64  CB        23.4610   13.1270   32.4470 C.3    98  SER98       0.2130
     65  OG        22.2780   13.6440   31.8570 O.3    98  SER98      -0.2179
     66  N         22.0600   12.1160   34.6920 N.am   99  TYR99      -0.1959
     67  CA        20.9750   12.0060   35.6630 C.3    99  TYR99       0.1771
     68  C         19.6370   12.3450   35.0170 C.2    99  TYR99       0.2620
     69  O         19.5420   13.2730   34.2080 O.2    99  TYR99      -0.2715
     70  CB        21.2250   12.9450   36.8540 C.3    99  TYR99       0.0574
     71  CG        20.1470   12.9170   37.9230 C.ar   99  TYR99      -0.0198
     72  CD1       20.0150   11.8270   38.7830 C.ar   99  TYR99      -0.0009
     73  CD2       19.2580   13.9840   38.0750 C.ar   99  TYR99      -0.0009
     74  CE1       19.0260   11.7990   39.7680 C.ar   99  TYR99       0.0417
     75  CE2       18.2670   13.9660   39.0550 C.ar   99  TYR99       0.0417
     76  CZ        18.1560   12.8700   39.8970 C.ar   99  TYR99       0.1957
     77  OH        17.1800   12.8390   40.8680 O.3    99  TYR99      -0.2866
     78  N         18.6170   11.5650   35.3620 N.am  100  TYR100     -0.1960
     79  CA        17.2660   11.7540   34.8450 C.3   100  TYR100      0.1771
     80  C         17.1450   11.4150   33.3530 C.2   100  TYR100      0.2620
     81  O         16.0470   11.4320   32.7950 O.2   100  TYR100     -0.2715
     82  CB        16.7920   13.1900   35.1200 C.3   100  TYR100      0.0574
     83  CG        15.5850   13.3060   36.0300 C.ar  100  TYR100     -0.0198
     84  CD1       14.9530   12.1720   36.5460 C.ar  100  TYR100     -0.0009
     85  CD2       15.0630   14.5570   36.3660 C.ar  100  TYR100     -0.0009
     86  CE1       13.8330   12.2820   37.3710 C.ar  100  TYR100      0.0417
     87  CE2       13.9440   14.6770   37.1900 C.ar  100  TYR100      0.0417
     88  CZ        13.3360   13.5360   37.6870 C.ar  100  TYR100      0.1957
     89  OH        12.2360   13.6520   38.5040 O.3   100  TYR100     -0.2866
     90  N         18.2640   11.0650   32.7250 N.am  101  GLY101     -0.1954
     91  CA        18.2520   10.7260   31.3140 C.3   101  GLY101      0.1869
     92  C         18.0100   11.9180   30.4080 C.2   101  GLY101      0.2309
     93  O         17.4480   11.7740   29.3210 O.2   101  GLY101     -0.2863
     94  N         22.2520   12.6930   26.6600 N.3   104  TRP104     -0.1241
     95  CA        22.6250   11.4100   26.0880 C.3   104  TRP104      0.1605
     96  C         23.8180   11.6120   25.1730 C.2   104  TRP104      0.2264
     97  O         23.8980   12.6180   24.4590 O.2   104  TRP104     -0.2867
     98  CB        21.4640   10.8100   25.2820 C.3   104  TRP104      0.0550
     99  CG        20.3860   10.1860   26.1190 C.ar  104  TRP104      0.0003
    100  CD1       19.4000   10.8330   26.8060 C.ar  104  TRP104      0.0946
    101  CD2       20.1830    8.7860   26.3530 C.ar  104  TRP104      0.0152
    102  NE1       18.5990    9.9270   27.4500 N.ar  104  TRP104     -0.2442
    103  CE2       19.0570    8.6620   27.1890 C.ar  104  TRP104      0.0810
    104  CE3       20.8450    7.6230   25.9320 C.ar  104  TRP104      0.0012
    105  CZ2       18.5750    7.4210   27.6180 C.ar  104  TRP104      0.0191
    106  CZ3       20.3620    6.3870   26.3610 C.ar  104  TRP104      0.0001
    107  CH2       19.2380    6.2990   27.1920 C.ar  104  TRP104      0.0015
@<TRIPOS>BOND
     1    97    96    2
     2    96    95    1
     3    98    95    1
     4    98    99    1
     5    26    25    2
     6   104   101   ar
     7   104   106   ar
     8    95    94    1
     9    99   101   ar
    10    99   100   ar
    11    25    24    1
    12   101   103   ar
    13   106   107   ar
    14    28    27    1
    15   100   102   ar
    16   103   102   ar
    17   103   105   ar
    18   107   105   ar
    19    27    24    1
    20    27    29    1
    21    24    23    1
    22    93    92    2
    23    30    31    1
    24    55    56    1
    25    59    56    1
    26    56    57    1
    27    92    91    1
    28    31    32    1
    29    31    34    1
    30    16    15    2
    31    32    33    2
    32    57    60   am
    33    57    58    2
    34    91    90    1
    35    60    61    1
    36    15    14    1
    37    34    35    1
    38    65    64    1
    39    64    61    1
    40    36    35   ar
    41    36    38   ar
    42    61    62    1
    43    35    37   ar
    44    90    80   am
    45    17    14    1
    46    17    18    1
    47    81    80    2
    48    14    13    1
    49    63    62    2
    50    80    79    1
    51    62    66   am
    52    38    39   ar
    53    18    20   ar
    54    18    19   ar
    55    37    40   ar
    56    37    39   ar
    57    69    68    2
    58    20    22   ar
    59    66    67    1
    60    40    42   ar
    61    39    41   ar
    62    79    82    1
    63    79    78    1
    64    19    21   ar
    65    68    78   am
    66    68    67    1
    67    82    83    1
    68    22    21   ar
    69    67    70    1
    70     4     3    2
    71    83    85   ar
    72    83    84   ar
    73    42    43   ar
    74    41    43   ar
    75    44    45    1
    76    45    48    1
    77    45    46    1
    78    85    87   ar
    79    84    86   ar
    80     3     2    1
    81    48    49    1
    82    70    71    1
    83    87    88   ar
    84    86    88   ar
    85    46    47    2
    86    88    89    1
    87    71    73   ar
    88    71    72   ar
    89    49    50    1
    90    73    75   ar
    91     2     5    1
    92     2     1    1
    93     5     6    1
    94    72    74   ar
    95    75    76   ar
    96    50    51    1
    97     6     8   ar
    98     6     7   ar
    99    74    76   ar
   100     8    10   ar
   101    76    77    1
   102    51    52    2
   103     7     9   ar
   104    10    11   ar
   105    52    53    1
   106    52    54    1
   107     9    11   ar
   108    11    12    1
