@<TRIPOS>MOLECULE
tmp/1aj8A00.pdb
 160 152 0 0 0
SMALL
GASTEIGER

@<TRIPOS>ATOM
      1  N         27.9970   42.0650   68.1170 N.3   217  ILE217     -0.1231
      2  CA        29.4510   41.9870   68.0540 C.3   217  ILE217      0.1692
      3  C         29.9180   40.5530   68.2280 C.2   217  ILE217      0.2592
      4  O         31.1070   40.2920   68.3870 O.2   217  ILE217     -0.2718
      5  CB        30.1780   42.9270   69.0590 C.3   217  ILE217      0.0266
      6  CG1       29.7760   42.6270   70.4990 C.3   217  ILE217      0.0019
      7  CG2       29.8950   44.3820   68.6910 C.3   217  ILE217      0.0020
      8  CD1       30.6600   43.3600   71.5020 C.3   217  ILE217      0.0001
      9  N         28.9640   39.6250   68.2210 N.am  218  HIS218     -0.1976
     10  CA        29.2890   38.2090   68.2580 C.3   218  HIS218      0.1656
     11  C         28.6750   37.6420   66.9760 C.2   218  HIS218      0.2291
     12  O         28.8130   38.2440   65.9170 O.2   218  HIS218     -0.2864
     13  CB        28.7240   37.4800   69.4890 C.3   218  HIS218      0.0771
     14  CG        29.3350   36.1260   69.6960 C.ar  218  HIS218      0.0820
     15  ND1       28.8670   35.2180   70.6240 N.ar  218  HIS218     -0.2267
     16  CD2       30.3830   35.5250   69.0820 C.ar  218  HIS218      0.1154
     17  CE1       29.6020   34.1200   70.5720 C.ar  218  HIS218      0.1986
     18  NE2       30.5290   34.2810   69.6440 N.ar  218  HIS218     -0.2212
     19  N         26.9600   39.5630   63.9870 N.3   221  ALA221     -0.1245
     20  CA        27.7200   40.3260   63.0050 C.3   221  ALA221      0.1562
     21  C         27.5860   39.7450   61.5970 C.2   221  ALA221      0.2260
     22  O         27.8600   40.4370   60.6110 O.2   221  ALA221     -0.2867
     23  CB        29.1830   40.3810   63.4050 C.3   221  ALA221      0.0290
     24  N         36.1720   55.1730   60.7760 N.3   246  LEU246     -0.1245
     25  CA        37.3230   55.2500   61.6630 C.3   246  LEU246      0.1561
     26  C         37.2200   56.5010   62.5200 C.2   246  LEU246      0.2260
     27  O         37.4310   56.4620   63.7320 O.2   246  LEU246     -0.2867
     28  CB        38.6180   55.2800   60.8520 C.3   246  LEU246      0.0270
     29  CG        39.0510   53.9690   60.1840 C.3   246  LEU246      0.0019
     30  CD1       40.5110   54.0860   59.7670 C.3   246  LEU246      0.0001
     31  CD2       38.8550   52.7880   61.1390 C.3   246  LEU246      0.0001
     32  N         34.7460   56.1300   65.1110 N.3   249  LYS249     -0.1231
     33  CA        35.0420   55.0510   66.0420 C.3   249  LYS249      0.1693
     34  C         33.9870   53.9580   65.8880 C.2   249  LYS249      0.2592
     35  O         33.6510   53.2780   66.8500 O.2   249  LYS249     -0.2718
     36  CB        35.0440   55.5670   67.4840 C.3   249  LYS249      0.0285
     37  CG        36.3950   56.0650   67.9800 C.3   249  LYS249      0.0035
     38  CD        36.9930   55.1170   69.0170 C.3   249  LYS249      0.0206
     39  CE        38.2610   55.6980   69.6400 C.3   249  LYS249      0.1093
     40  NZ        39.5110   55.0590   69.1150 N.3   249  LYS249     -0.1314
     41  N         33.4570   53.8010   64.6770 N.am  250  ARG250     -0.1966
     42  CA        32.4480   52.7770   64.4110 C.3   250  ARG250      0.1729
     43  C         33.1300   51.4440   64.1420 C.2   250  ARG250      0.2616
     44  O         34.1610   51.3970   63.4830 O.2   250  ARG250     -0.2715
     45  CB        31.6000   53.1510   63.1960 C.3   250  ARG250      0.0348
     46  CG        30.3810   52.2610   63.0170 C.3   250  ARG250      0.0492
     47  CD        30.2690   51.7270   61.6010 C.3   250  ARG250      0.2205
     48  NE        29.5410   52.6480   60.7330 N.pl3 250  ARG250     -0.0865
     49  CZ        28.4650   52.3250   60.0170 C.cat 250  ARG250      0.5346
     50  NH1       27.9730   51.0920   60.0540 N.pl3 250  ARG250      0.1354
     51  NH2       27.8770   53.2400   59.2550 N.pl3 250  ARG250      0.1354
     52  N         32.5570   50.3610   64.6500 N.am  251  LYS251     -0.1963
     53  CA        33.1410   49.0460   64.4420 C.3   251  LYS251      0.1728
     54  C         32.8570   48.5590   63.0220 C.2   251  LYS251      0.2616
     55  O         31.7250   48.6420   62.5540 O.2   251  LYS251     -0.2715
     56  CB        32.5530   48.0420   65.4420 C.3   251  LYS251      0.0311
     57  CG        32.9440   48.2810   66.8910 C.3   251  LYS251      0.0038
     58  CD        34.3570   47.7850   67.1740 C.3   251  LYS251      0.0206
     59  CE        34.9030   48.3240   68.4970 C.3   251  LYS251      0.1093
     60  NZ        35.2540   49.7740   68.4050 N.3   251  LYS251     -0.1314
     61  N         33.8810   48.0720   62.3280 N.am  252  ILE252     -0.1963
     62  CA        33.6730   47.5330   60.9910 C.3   252  ILE252      0.1727
     63  C         33.2300   46.1010   61.2490 C.2   252  ILE252      0.2616
     64  O         33.9940   45.2870   61.7600 O.2   252  ILE252     -0.2715
     65  CB        34.9760   47.5370   60.1410 C.3   252  ILE252      0.0290
     66  CG1       35.2400   48.9470   59.6100 C.3   252  ILE252      0.0022
     67  CG2       34.8390   46.5860   58.9510 C.3   252  ILE252      0.0023
     68  CD1       36.4960   49.5820   60.1440 C.3   252  ILE252      0.0001
     69  N         31.9810   45.8030   60.9160 N.am  253  MET253     -0.1963
     70  CA        31.4370   44.4710   61.1330 C.3   253  MET253      0.1736
     71  C         32.0900   43.4100   60.2480 C.2   253  MET253      0.2617
     72  O         32.2830   43.6120   59.0480 O.2   253  MET253     -0.2715
     73  CB        29.9280   44.5040   60.9200 C.3   253  MET253      0.0427
     74  CG        29.2000   45.3150   61.9850 C.3   253  MET253      0.0599
     75  SD        29.0510   44.3770   63.5280 S.3   253  MET253     -0.1393
     76  CE        28.5920   45.6610   64.6800 C.3   253  MET253      0.0692
     77  N         32.4310   42.2800   60.8620 N.am  254  GLY254     -0.1940
     78  CA        33.0780   41.2010   60.1410 C.3   254  GLY254      0.2014
     79  C         34.5840   41.3010   60.2820 C.2   254  GLY254      0.2639
     80  O         35.3290   40.4840   59.7360 O.2   254  GLY254     -0.2714
     81  N         35.0320   42.3160   61.0160 N.am  255  ALA255     -0.1963
     82  CA        36.4550   42.5350   61.2500 C.3   255  ALA255      0.1728
     83  C         36.7440   42.5080   62.7420 C.2   255  ALA255      0.2617
     84  O         35.8900   42.8490   63.5520 O.2   255  ALA255     -0.2715
     85  CB        36.8870   43.8730   60.6710 C.3   255  ALA255      0.0334
     86  N         37.9560   42.1000   63.0970 N.am  256  GLY256     -0.1940
     87  CA        38.3400   42.0500   64.4940 C.3   256  GLY256      0.2014
     88  C         38.0510   40.7090   65.1280 C.2   256  GLY256      0.2639
     89  O         37.1210   40.0100   64.7320 O.2   256  GLY256     -0.2714
     90  N         38.8620   40.3460   66.1130 N.am  257  HIS257     -0.1959
     91  CA        38.6910   39.0860   66.8180 C.3   257  HIS257      0.1787
     92  C         39.5200   39.0890   68.0920 C.2   257  HIS257      0.2620
     93  O         40.6420   39.5990   68.1150 O.2   257  HIS257     -0.2715
     94  CB        39.1140   37.9160   65.9390 C.3   257  HIS257      0.0785
     95  CG        38.5450   36.6050   66.3800 C.ar  257  HIS257      0.0821
     96  ND1       39.1640   35.8020   67.3150 N.ar  257  HIS257     -0.2267
     97  CD2       37.3980   35.9720   66.0410 C.ar  257  HIS257      0.1154
     98  CE1       38.4220   34.7320   67.5340 C.ar  257  HIS257      0.1986
     99  NE2       37.3440   34.8100   66.7740 N.ar  257  HIS257     -0.2212
    100  N         38.9670   38.5220   69.1560 N.am  258  ARG258     -0.1977
    101  CA        39.6890   38.4810   70.4210 C.3   258  ARG258      0.1597
    102  C         40.9420   37.6240   70.3130 C.2   258  ARG258      0.2287
    103  O         41.9730   37.9670   70.8840 O.2   258  ARG258     -0.2864
    104  CB        38.7870   37.9420   71.5400 C.3   258  ARG258      0.0334
    105  CG        39.5290   37.5690   72.8300 C.3   258  ARG258      0.0492
    106  CD        40.1620   38.7870   73.5010 C.3   258  ARG258      0.2205
    107  NE        39.2050   39.8650   73.7480 N.pl3 258  ARG258     -0.0865
    108  CZ        38.3990   39.9180   74.8020 C.cat 258  ARG258      0.5346
    109  NH1       38.4360   38.9510   75.7070 N.pl3 258  ARG258      0.1354
    110  NH2       37.5670   40.9420   74.9570 N.pl3 258  ARG258      0.1354
    111  N         44.6860   37.5720   65.3460 N.3   261  LYS261     -0.1245
    112  CA        45.2770   38.8890   65.1530 C.3   261  LYS261      0.1561
    113  C         45.7570   38.9340   63.7060 C.2   261  LYS261      0.2260
    114  O         46.5930   39.7510   63.3280 O.2   261  LYS261     -0.2867
    115  CB        46.4440   39.0950   66.1200 C.3   261  LYS261      0.0271
    116  CG        46.0310   39.0190   67.5970 C.3   261  LYS261      0.0035
    117  CD        45.0560   40.1400   67.9680 C.3   261  LYS261      0.0206
    118  CE        44.2220   39.7940   69.1950 C.3   261  LYS261      0.1093
    119  NZ        42.9990   40.6460   69.2700 N.3   261  LYS261     -0.1314
    120  N         44.3170   48.5800   59.4300 N.3   297  LEU297     -0.1245
    121  CA        44.0570   48.0030   60.7410 C.3   297  LEU297      0.1561
    122  C         44.8260   46.7430   61.1140 C.2   297  LEU297      0.2260
    123  O         44.7780   46.3040   62.2670 O.2   297  LEU297     -0.2867
    124  CB        42.5540   47.7490   60.8790 C.3   297  LEU297      0.0270
    125  CG        41.6490   48.9400   60.5520 C.3   297  LEU297      0.0019
    126  CD1       40.1960   48.5440   60.7270 C.3   297  LEU297      0.0001
    127  CD2       41.9950   50.1150   61.4560 C.3   297  LEU297      0.0001
    128  N         47.3020   46.7360   64.0310 N.3   300  LYS300     -0.1245
    129  CA        46.5260   46.8040   65.2650 C.3   300  LYS300      0.1561
    130  C         46.0590   45.4130   65.6780 C.2   300  LYS300      0.2260
    131  O         45.6240   45.2120   66.8120 O.2   300  LYS300     -0.2867
    132  CB        45.2950   47.6770   65.0520 C.3   300  LYS300      0.0271
    133  CG        45.2440   48.9020   65.9120 C.3   300  LYS300      0.0035
    134  CD        43.8810   49.5530   65.8150 C.3   300  LYS300      0.0206
    135  CE        43.2630   49.6970   67.1870 C.3   300  LYS300      0.1093
    136  NZ        42.5110   50.9660   67.3060 N.3   300  LYS300     -0.1314
    137  N         43.6860   43.8100   63.8860 N.3   302  ILE302     -0.1245
    138  CA        42.3050   43.7080   63.4030 C.3   302  ILE302      0.1561
    139  C         42.2760   43.2290   61.9540 C.2   302  ILE302      0.2260
    140  O         42.6830   43.9530   61.0450 O.2   302  ILE302     -0.2867
    141  CB        41.5760   45.0760   63.4560 C.3   302  ILE302      0.0252
    142  CG1       41.5290   45.5870   64.8910 C.3   302  ILE302      0.0019
    143  CG2       40.1580   44.9490   62.9080 C.3   302  ILE302      0.0019
    144  CD1       41.4710   47.0820   64.9740 C.3   302  ILE302      0.0001
    145  N         37.1900   38.4830   59.9910 N.3   305  ASN305     -0.1240
    146  CA        36.7690   37.3110   60.7540 C.3   305  ASN305      0.1653
    147  C         35.6880   36.5100   60.0220 C.2   305  ASN305      0.2266
    148  O         35.1790   36.9310   58.9800 O.2   305  ASN305     -0.2867
    149  CB        36.2990   37.7040   62.1690 C.3   305  ASN305      0.1155
    150  CG        35.0200   38.5130   62.1710 C.2   305  ASN305      0.2627
    151  OD1       34.0360   38.1440   61.5360 O.2   305  ASN305     -0.2716
    152  ND2       35.0250   39.6230   62.8990 N.am  305  ASN305     -0.0877
    153  N         32.5850   36.0680   60.1840 N.3   307  ASP307     -0.1239
    154  CA        31.2880   36.6330   59.8220 C.3   307  ASP307      0.1674
    155  C         31.3000   37.6660   58.7010 C.2   307  ASP307      0.2266
    156  O         30.2520   38.2200   58.3480 O.2   307  ASP307     -0.2867
    157  CB        30.6250   37.2270   61.0690 C.3   307  ASP307      0.1410
    158  CG        30.2340   36.1560   62.0890 C.2   307  ASP307      0.3668
    159  OD1       29.7120   35.0930   61.6830 O.co2 307  ASP307     -0.2456
    160  OD2       30.4490   36.3740   63.2960 O.co2 307  ASP307     -0.2456
@<TRIPOS>BOND
     1   156   155    2
     2   155   154    1
     3    67    65    1
     4   148   147    2
     5    72    71    2
     6    51    49    1
     7   120   121    1
     8    66    65    1
     9    66    68    1
    10    80    79    2
    11    30    29    1
    12   154   153    1
    13   154   157    1
    14   145   146    1
    15    49    50    1
    16    49    48    2
    17   147   146    1
    18    65    62    1
    19    78    79    1
    20    78    77    1
    21    29    28    1
    22    29    31    1
    23    71    77   am
    24    71    70    1
    25    79    81   am
    26   125   126    1
    27   125   124    1
    28   125   127    1
    29    22    21    2
    30    85    82    1
    31    48    47    1
    32   121   124    1
    33   121   122    1
    34   146   149    1
    35    24    25    1
    36    28    25    1
    37    69    70    1
    38    69    63   am
    39    73    70    1
    40    73    74    1
    41    62    63    1
    42    62    61    1
    43    81    82    1
    44   140   139    2
    45   157   158    1
    46   122   123    2
    47    63    64    2
    48    82    83    1
    49   151   150    2
    50    21    20    1
    51    47    46    1
    52    25    26    1
    53   159   158   ar
    54   139   138    1
    55    74    75    1
    56   158   160   ar
    57   149   150    1
    58   150   152   am
    59    61    54   am
    60    26    27    2
    61    55    54    2
    62    83    86   am
    63    83    84    2
    64   143   141    1
    65    20    23    1
    66    20    19    1
    67    46    45    1
    68    54    53    1
    69    86    87    1
    70    45    42    1
    71   114   113    2
    72   138   141    1
    73   138   137    1
    74   141   142    1
    75    44    43    2
    76    75    76    1
    77   113   112    1
    78   128   129    1
    79    43    42    1
    80    43    52   am
    81    42    41    1
    82    53    52    1
    83    53    56    1
    84    87    88    1
    85    41    34   am
    86    89    88    2
    87   142   144    1
    88   132   129    1
    89   132   133    1
    90    32    33    1
    91    88    90   am
    92   112   111    1
    93   112   115    1
    94   129   130    1
    95    56    57    1
    96   130   131    2
    97   134   133    1
    98   134   135    1
    99    34    33    1
   100    34    35    2
   101    12    11    2
   102    94    95    1
   103    94    91    1
   104    97    95   ar
   105    97    99   ar
   106    33    36    1
   107    90    91    1
   108   115   116    1
   109    95    96   ar
   110    99    98   ar
   111    91    92    1
   112    57    58    1
   113    11    10    1
   114    58    59    1
   115   135   136    1
   116    96    98   ar
   117    36    37    1
   118   116   117    1
   119   117   118    1
   120    37    38    1
   121     2     1    1
   122     2     3    1
   123     2     5    1
   124    92    93    2
   125    92   100   am
   126     9     3   am
   127     9    10    1
   128     3     4    2
   129    10    13    1
   130    60    59    1
   131     7     5    1
   132    38    39    1
   133     5     6    1
   134    16    18   ar
   135    16    14   ar
   136    40    39    1
   137   100   101    1
   138   118   119    1
   139    13    14    1
   140    18    17   ar
   141    14    15   ar
   142   102   101    1
   143   102   103    2
   144   101   104    1
   145     6     8    1
   146    17    15   ar
   147   104   105    1
   148   105   106    1
   149   106   107    1
   150   107   108    2
   151   108   110    1
   152   108   109    1
