@<TRIPOS>MOLECULE
tmp/1aj8A01.pdb
 138 132 0 0 0
SMALL
GASTEIGER

@<TRIPOS>ATOM
      1  N         43.0790   26.9100   68.8100 N.3    18  ILE18      -0.1245
      2  CA        43.1570   28.0790   67.9480 C.3    18  ILE18       0.1561
      3  C         44.5260   28.7090   68.0870 C.2    18  ILE18       0.2260
      4  O         45.0320   28.8660   69.2040 O.2    18  ILE18      -0.2867
      5  CB        42.1490   29.1780   68.3320 C.3    18  ILE18       0.0252
      6  CG1       40.7210   28.6510   68.2820 C.3    18  ILE18       0.0019
      7  CG2       42.3040   30.3610   67.3870 C.3    18  ILE18       0.0019
      8  CD1       39.7340   29.6140   68.9240 C.3    18  ILE18       0.0001
      9  N         34.4850   26.7250   68.0350 N.3   183  HIS183     -0.1241
     10  CA        35.5430   27.7130   68.1240 C.3   183  HIS183      0.1621
     11  C         36.0370   27.9990   69.5520 C.2   183  HIS183      0.2264
     12  O         36.1000   29.1520   69.9890 O.2   183  HIS183     -0.2867
     13  CB        35.1350   29.0120   67.4320 C.3   183  HIS183      0.0745
     14  CG        36.3000   29.7780   66.8850 C.ar  183  HIS183      0.0817
     15  ND1       37.2340   29.2100   66.0430 N.ar  183  HIS183     -0.2268
     16  CD2       36.7070   31.0540   67.0880 C.ar  183  HIS183      0.1154
     17  CE1       38.1650   30.1020   65.7530 C.ar  183  HIS183      0.1986
     18  NE2       37.8690   31.2300   66.3740 N.ar  183  HIS183     -0.2212
     19  N         34.5140   30.9680   72.9820 N.3   186  ASN186     -0.1225
     20  CA        34.0500   32.2820   72.5610 C.3   186  ASN186      0.1785
     21  C         32.9690   32.6380   73.5850 C.2   186  ASN186      0.2597
     22  O         32.6290   31.8200   74.4440 O.2   186  ASN186     -0.2718
     23  CB        33.4280   32.1910   71.1700 C.3   186  ASN186      0.1169
     24  CG        32.5280   30.9830   71.0240 C.2   186  ASN186      0.2627
     25  OD1       31.3220   31.0630   71.2490 O.2   186  ASN186     -0.2716
     26  ND2       33.1140   29.8500   70.6600 N.am  186  ASN186     -0.0877
     27  N         32.4210   33.8440   73.4850 N.am  187  ALA187     -0.1979
     28  CA        31.3950   34.2970   74.4240 C.3   187  ALA187      0.1597
     29  C         30.1870   33.3700   74.5660 C.2   187  ALA187      0.2287
     30  O         29.7800   33.0640   75.6880 O.2   187  ALA187     -0.2864
     31  CB        30.9300   35.7080   74.0480 C.3   187  ALA187      0.0319
     32  N         27.9970   42.0650   68.1170 N.3   217  ILE217     -0.1231
     33  CA        29.4510   41.9870   68.0540 C.3   217  ILE217      0.1692
     34  C         29.9180   40.5530   68.2280 C.2   217  ILE217      0.2592
     35  O         31.1070   40.2920   68.3870 O.2   217  ILE217     -0.2718
     36  CB        30.1780   42.9270   69.0590 C.3   217  ILE217      0.0266
     37  CG1       29.7760   42.6270   70.4990 C.3   217  ILE217      0.0019
     38  CG2       29.8950   44.3820   68.6910 C.3   217  ILE217      0.0020
     39  CD1       30.6600   43.3600   71.5020 C.3   217  ILE217      0.0001
     40  N         28.9640   39.6250   68.2210 N.am  218  HIS218     -0.1976
     41  CA        29.2890   38.2090   68.2580 C.3   218  HIS218      0.1656
     42  C         28.6750   37.6420   66.9760 C.2   218  HIS218      0.2291
     43  O         28.8130   38.2440   65.9170 O.2   218  HIS218     -0.2864
     44  CB        28.7240   37.4800   69.4890 C.3   218  HIS218      0.0771
     45  CG        29.3350   36.1260   69.6960 C.ar  218  HIS218      0.0820
     46  ND1       28.8670   35.2180   70.6240 N.ar  218  HIS218     -0.2267
     47  CD2       30.3830   35.5250   69.0820 C.ar  218  HIS218      0.1154
     48  CE1       29.6020   34.1200   70.5720 C.ar  218  HIS218      0.1986
     49  NE2       30.5290   34.2810   69.6440 N.ar  218  HIS218     -0.2212
     50  N         26.9600   39.5630   63.9870 N.3   221  ALA221     -0.1245
     51  CA        27.7200   40.3260   63.0050 C.3   221  ALA221      0.1562
     52  C         27.5860   39.7450   61.5970 C.2   221  ALA221      0.2260
     53  O         27.8600   40.4370   60.6110 O.2   221  ALA221     -0.2867
     54  CB        29.1830   40.3810   63.4050 C.3   221  ALA221      0.0290
     55  N         38.8620   40.3460   66.1130 N.3   257  HIS257     -0.1226
     56  CA        38.6910   39.0860   66.8180 C.3   257  HIS257      0.1752
     57  C         39.5200   39.0890   68.0920 C.2   257  HIS257      0.2596
     58  O         40.6420   39.5990   68.1150 O.2   257  HIS257     -0.2718
     59  CB        39.1140   37.9160   65.9390 C.3   257  HIS257      0.0759
     60  CG        38.5450   36.6050   66.3800 C.ar  257  HIS257      0.0818
     61  ND1       39.1640   35.8020   67.3150 N.ar  257  HIS257     -0.2268
     62  CD2       37.3980   35.9720   66.0410 C.ar  257  HIS257      0.1154
     63  CE1       38.4220   34.7320   67.5340 C.ar  257  HIS257      0.1986
     64  NE2       37.3440   34.8100   66.7740 N.ar  257  HIS257     -0.2212
     65  N         38.9670   38.5220   69.1560 N.am  258  ARG258     -0.1966
     66  CA        39.6890   38.4810   70.4210 C.3   258  ARG258      0.1729
     67  C         40.9420   37.6240   70.3130 C.2   258  ARG258      0.2616
     68  O         41.9730   37.9670   70.8840 O.2   258  ARG258     -0.2715
     69  CB        38.7870   37.9420   71.5400 C.3   258  ARG258      0.0348
     70  CG        39.5290   37.5690   72.8300 C.3   258  ARG258      0.0492
     71  CD        40.1620   38.7870   73.5010 C.3   258  ARG258      0.2205
     72  NE        39.2050   39.8650   73.7480 N.pl3 258  ARG258     -0.0865
     73  CZ        38.3990   39.9180   74.8020 C.cat 258  ARG258      0.5346
     74  NH1       38.4360   38.9510   75.7070 N.pl3 258  ARG258      0.1354
     75  NH2       37.5670   40.9420   74.9570 N.pl3 258  ARG258      0.1354
     76  N         40.8550   36.5190   69.5740 N.am  259  VAL259     -0.1977
     77  CA        41.9890   35.6050   69.4280 C.3   259  VAL259      0.1596
     78  C         42.8340   35.8240   68.1760 C.2   259  VAL259      0.2287
     79  O         44.0440   36.0240   68.2700 O.2   259  VAL259     -0.2864
     80  CB        41.5180   34.1350   69.4620 C.3   259  VAL259      0.0276
     81  CG1       42.7150   33.1960   69.4120 C.3   259  VAL259      0.0022
     82  CG2       40.7030   33.8910   70.7330 C.3   259  VAL259      0.0022
     83  N         38.7520   30.6250   58.7460 N.3   266  ARG266     -0.1245
     84  CA        37.4090   30.3240   58.2730 C.3   266  ARG266      0.1563
     85  C         36.9500   31.3830   57.2760 C.2   266  ARG266      0.2260
     86  O         36.1740   31.0920   56.3730 O.2   266  ARG266     -0.2867
     87  CB        36.4290   30.2660   59.4570 C.3   266  ARG266      0.0307
     88  CG        36.7120   29.1490   60.4530 C.3   266  ARG266      0.0489
     89  CD        36.0270   29.3920   61.8090 C.3   266  ARG266      0.2205
     90  NE        36.3890   30.6820   62.4110 N.pl3 266  ARG266     -0.0865
     91  CZ        35.7500   31.2320   63.4410 C.cat 266  ARG266      0.5346
     92  NH1       34.7200   30.5970   63.9880 N.pl3 266  ARG266      0.1354
     93  NH2       36.1100   32.4340   63.8910 N.pl3 266  ARG266      0.1354
     94  N         37.1900   38.4830   59.9910 N.3   305  ASN305     -0.1225
     95  CA        36.7690   37.3110   60.7540 C.3   305  ASN305      0.1785
     96  C         35.6880   36.5100   60.0220 C.2   305  ASN305      0.2597
     97  O         35.1790   36.9310   58.9800 O.2   305  ASN305     -0.2718
     98  CB        36.2990   37.7040   62.1690 C.3   305  ASN305      0.1169
     99  CG        35.0200   38.5130   62.1710 C.2   305  ASN305      0.2627
    100  OD1       34.0360   38.1440   61.5360 O.2   305  ASN305     -0.2716
    101  ND2       35.0250   39.6230   62.8990 N.am  305  ASN305     -0.0877
    102  N         35.3600   35.3500   60.5820 N.am  306  VAL306     -0.1966
    103  CA        34.3840   34.4220   60.0190 C.3   306  VAL306      0.1727
    104  C         33.0450   34.9960   59.5550 C.2   306  VAL306      0.2616
    105  O         32.4340   34.4730   58.6250 O.2   306  VAL306     -0.2715
    106  CB        34.0970   33.2780   61.0280 C.3   306  VAL306      0.0290
    107  CG1       33.3830   33.8390   62.2610 C.3   306  VAL306      0.0023
    108  CG2       33.2700   32.1720   60.3680 C.3   306  VAL306      0.0023
    109  N         32.5850   36.0680   60.1840 N.am  307  ASP307     -0.1971
    110  CA        31.2880   36.6330   59.8220 C.3   307  ASP307      0.1709
    111  C         31.3000   37.6660   58.7010 C.2   307  ASP307      0.2293
    112  O         30.2520   38.2200   58.3480 O.2   307  ASP307     -0.2864
    113  CB        30.6250   37.2270   61.0690 C.3   307  ASP307      0.1436
    114  CG        30.2340   36.1560   62.0890 C.2   307  ASP307      0.3671
    115  OD1       29.7120   35.0930   61.6830 O.co2 307  ASP307     -0.2456
    116  OD2       30.4490   36.3740   63.2960 O.co2 307  ASP307     -0.2456
    117  N         24.2540   30.2280   62.0050 N.3   328  PHE328     -0.1241
    118  CA        25.4630   30.1410   62.8300 C.3   328  PHE328      0.1605
    119  C         25.1100   29.1920   63.9950 C.2   328  PHE328      0.2264
    120  O         25.8700   28.2790   64.3250 O.2   328  PHE328     -0.2867
    121  CB        25.8290   31.5390   63.3520 C.3   328  PHE328      0.0534
    122  CG        27.2240   31.6490   63.9270 C.ar  328  PHE328     -0.0203
    123  CD1       27.8530   30.5520   64.5090 C.ar  328  PHE328     -0.0042
    124  CD2       27.9010   32.8650   63.8910 C.ar  328  PHE328     -0.0042
    125  CE1       29.1380   30.6650   65.0450 C.ar  328  PHE328     -0.0003
    126  CE2       29.1860   32.9920   64.4250 C.ar  328  PHE328     -0.0003
    127  CZ        29.8050   31.8880   65.0030 C.ar  328  PHE328     -0.0000
    128  N         26.9290   25.9700   65.3340 N.3   332  ARG332     -0.1245
    129  CA        27.5540   26.0760   66.6500 C.3   332  ARG332      0.1563
    130  C         26.9710   25.1660   67.7340 C.2   332  ARG332      0.2260
    131  O         27.6340   24.8840   68.7320 O.2   332  ARG332     -0.2867
    132  CB        27.5330   27.5410   67.1050 C.3   332  ARG332      0.0307
    133  CG        28.2820   27.8430   68.4100 C.3   332  ARG332      0.0489
    134  CD        29.6950   27.2540   68.4670 C.3   332  ARG332      0.2205
    135  NE        30.5610   27.7040   67.3730 N.pl3 332  ARG332     -0.0865
    136  CZ        31.1910   28.8770   67.3210 C.cat 332  ARG332      0.5346
    137  NH1       31.0710   29.7580   68.3040 N.pl3 332  ARG332      0.1354
    138  NH2       31.9480   29.1710   66.2740 N.pl3 332  ARG332      0.1354
@<TRIPOS>BOND
     1    86    85    2
     2    85    84    1
     3    84    83    1
     4    84    87    1
     5   112   111    2
     6   105   104    2
     7   111   110    1
     8    97    96    2
     9    87    88    1
    10   104   103    1
    11   104   109   am
    12   110   109    1
    13   110   113    1
    14    94    95    1
    15   103   102    1
    16   103   106    1
    17    96   102   am
    18    96    95    1
    19   108   106    1
    20    88    89    1
    21    53    52    2
    22    95    98    1
    23   106   107    1
    24   113   114    1
    25   100    99    2
    26    52    51    1
    27   115   114   ar
    28    89    90    1
    29   117   118    1
    30   114   116   ar
    31    98    99    1
    32    99   101   am
    33    90    91    2
    34   118   121    1
    35   118   119    1
    36    51    54    1
    37    51    50    1
    38   121   122    1
    39    91    93    1
    40    91    92    1
    41   124   122   ar
    42   124   126   ar
    43   122   123   ar
    44   119   120    2
    45   126   127   ar
    46   123   125   ar
    47   127   125   ar
    48   128   129    1
    49    17    15   ar
    50    17    18   ar
    51    43    42    2
    52    59    60    1
    53    59    56    1
    54    62    60   ar
    55    62    64   ar
    56    15    14   ar
    57    55    56    1
    58   138   136    1
    59    18    16   ar
    60    60    61   ar
    61   129   132    1
    62   129   130    1
    63    64    63   ar
    64    56    57    1
    65    14    16   ar
    66    14    13    1
    67    42    41    1
    68   132   133    1
    69    61    63   ar
    70   136   135    2
    71   136   137    1
    72   135   134    1
    73     7     5    1
    74    13    10    1
    75   130   131    2
    76     2     3    1
    77     2     5    1
    78     2     1    1
    79     9    10    1
    80    33    32    1
    81    33    34    1
    82    33    36    1
    83     3     4    2
    84    57    58    2
    85    57    65   am
    86    10    11    1
    87    78    79    2
    88    78    77    1
    89    40    34   am
    90    40    41    1
    91    34    35    2
    92    41    44    1
    93     6     5    1
    94     6     8    1
    95   133   134    1
    96    38    36    1
    97    36    37    1
    98    47    49   ar
    99    47    45   ar
   100    65    66    1
   101    81    80    1
   102    77    80    1
   103    77    76    1
   104    80    82    1
   105    44    45    1
   106    11    12    2
   107    76    67   am
   108    49    48   ar
   109    45    46   ar
   110    67    66    1
   111    67    68    2
   112    66    69    1
   113    37    39    1
   114    48    46   ar
   115    26    24   am
   116    24    23    1
   117    24    25    2
   118    23    20    1
   119    69    70    1
   120    20    19    1
   121    20    21    1
   122    70    71    1
   123    27    21   am
   124    27    28    1
   125    71    72    1
   126    21    22    2
   127    72    73    2
   128    31    28    1
   129    28    29    1
   130    29    30    2
   131    73    75    1
   132    73    74    1
