@<TRIPOS>MOLECULE
tmp/1ajkA00.pdb
 117 113 0 0 0
SMALL
GASTEIGER

@<TRIPOS>ATOM
      1  N          4.2100    1.7930   31.8690 N.3     7  SER7       -0.1217
      2  CA         2.7990    1.8390   31.4640 C.3     7  SER7        0.1889
      3  C          1.9180    0.9930   32.3920 C.2     7  SER7        0.2288
      4  O          2.3320    0.1440   33.1350 O.2     7  SER7       -0.2866
      5  CB         2.7120    1.3360   30.0210 C.3     7  SER7        0.2089
      6  OG         2.8860   -0.0780   30.0230 O.3     7  SER7       -0.2183
      7  N         -1.9270   -0.7410   31.2250 N.3     9  PHE9       -0.1241
      8  CA        -2.8580   -0.6840   30.0700 C.3     9  PHE9        0.1605
      9  C         -3.7010   -1.9590   29.9680 C.2     9  PHE9        0.2264
     10  O         -3.3570   -2.9690   30.6080 O.2     9  PHE9       -0.2867
     11  CB        -2.0860   -0.4470   28.7510 C.3     9  PHE9        0.0534
     12  CG        -1.0500   -1.5070   28.4020 C.ar    9  PHE9       -0.0203
     13  CD1        0.2010   -1.5260   29.0370 C.ar    9  PHE9       -0.0042
     14  CD2       -1.3430   -2.4150   27.4160 C.ar    9  PHE9       -0.0042
     15  CE1        1.1460   -2.4950   28.6400 C.ar    9  PHE9       -0.0003
     16  CE2       -0.3970   -3.3690   27.0490 C.ar    9  PHE9       -0.0003
     17  CZ         0.8310   -3.4190   27.6460 C.ar    9  PHE9       -0.0000
     18  N         -7.6790   -5.6310   17.8130 N.3    20  TRP20      -0.1241
     19  CA        -6.7940   -4.9820   18.7810 C.3    20  TRP20       0.1605
     20  C         -7.5450   -3.8340   19.4890 C.2    20  TRP20       0.2264
     21  O         -7.7770   -2.8040   18.8690 O.2    20  TRP20      -0.2867
     22  CB        -5.5520   -4.4570   18.0160 C.3    20  TRP20       0.0550
     23  CG        -4.5890   -3.6060   18.8380 C.ar   20  TRP20       0.0003
     24  CD1       -4.5650   -3.4340   20.1960 C.ar   20  TRP20       0.0946
     25  CD2       -3.5260   -2.7760   18.3310 C.ar   20  TRP20       0.0152
     26  NE1       -3.5750   -2.5570   20.5480 N.ar   20  TRP20      -0.2442
     27  CE2       -2.9290   -2.1500   19.3820 C.ar   20  TRP20       0.0810
     28  CE3       -3.0690   -2.5670   16.9990 C.ar   20  TRP20       0.0012
     29  CZ2       -1.8150   -1.2800   19.2600 C.ar   20  TRP20       0.0191
     30  CZ3       -1.9900   -1.6990   16.8290 C.ar   20  TRP20       0.0001
     31  CH2       -1.3760   -1.0810   17.9450 C.ar   20  TRP20       0.0015
     32  N         -7.3540   -1.5030   23.1090 N.3    22  GLU22      -0.1245
     33  CA        -6.3600   -1.3080   24.1840 C.3    22  GLU22       0.1567
     34  C         -6.5550    0.0700   24.7750 C.2    22  GLU22       0.2260
     35  O         -6.8910    1.0020   23.9780 O.2    22  GLU22      -0.2867
     36  CB        -4.9670   -1.4040   23.5250 C.3    22  GLU22       0.0388
     37  CG        -3.8720   -0.7700   24.3770 C.3    22  GLU22       0.1160
     38  CD        -2.4250   -1.0150   23.7990 C.2    22  GLU22       0.3649
     39  OE1       -2.3510   -1.7500   22.8460 O.co2  22  GLU22      -0.2457
     40  OE2       -1.5020   -0.3470   24.2970 O.co2  22  GLU22      -0.2457
     41  N         -4.6470    2.9880   27.2900 N.3    24  ASP24      -0.1239
     42  CA        -3.3060    3.1440   27.8650 C.3    24  ASP24       0.1674
     43  C         -3.1870    4.2350   28.8970 C.2    24  ASP24       0.2266
     44  O         -3.7210    5.3200   28.6380 O.2    24  ASP24      -0.2867
     45  CB        -2.3890    3.6270   26.6700 C.3    24  ASP24       0.1410
     46  CG        -2.0890    2.5590   25.6660 C.2    24  ASP24       0.3668
     47  OD1       -1.9230    1.3610   26.0780 O.co2  24  ASP24      -0.2456
     48  OD2       -2.1020    2.8990   24.4770 O.co2  24  ASP24      -0.2456
     49  N          0.4880    5.9920   29.9120 N.3    26  GLU26      -0.1245
     50  CA         1.9520    5.7770   29.7070 C.3    26  GLU26       0.1567
     51  C          2.7330    7.0070   30.1660 C.2    26  GLU26       0.2260
     52  O          2.2520    8.1340   30.0610 O.2    26  GLU26      -0.2867
     53  CB         2.1180    5.6610   28.1570 C.3    26  GLU26       0.0388
     54  CG         1.8080    4.2790   27.5550 C.3    26  GLU26       0.1160
     55  CD         2.0380    4.2930   26.0590 C.2    26  GLU26       0.3649
     56  OE1        1.3500    5.0640   25.3310 O.co2  26  GLU26      -0.2457
     57  OE2        2.8410    3.4610   25.5930 O.co2  26  GLU26      -0.2457
     58  N         -4.2010    7.2150   25.8480 N.3    38  ASN38      -0.1296
     59  CA        -4.4870    6.8700   24.4680 C.3    38  ASN38       0.1339
     60  C         -5.3460    5.5850   24.4340 C.3    38  ASN38       0.2014
     61  O         -5.5350    5.0800   25.5240 O.3    38  ASN38      -0.2188
     62  CB        -3.1890    6.5320   23.7070 C.3    38  ASN38       0.1102
     63  CG        -3.2890    6.6050   22.2090 C.2    38  ASN38       0.2623
     64  OD1       -4.2870    6.9980   21.6060 O.2    38  ASN38      -0.2716
     65  ND2       -2.2360    6.2040   21.4990 N.am   38  ASN38      -0.0877
     66  N         -6.7410    2.2510   21.4820 N.3    40  TYR40      -0.1241
     67  CA        -6.9020    1.7320   20.1290 C.3    40  TYR40       0.1605
     68  C         -8.2090    0.9450   20.0650 C.2    40  TYR40       0.2264
     69  O         -8.4930    0.2320   21.0430 O.2    40  TYR40      -0.2867
     70  CB        -5.7850    0.6610   19.9290 C.3    40  TYR40       0.0534
     71  CG        -4.4180    1.3580   19.8840 C.ar   40  TYR40      -0.0201
     72  CD1       -3.7630    1.6620   21.0570 C.ar   40  TYR40      -0.0009
     73  CD2       -3.8630    1.6800   18.6370 C.ar   40  TYR40      -0.0009
     74  CE1       -2.5190    2.3080   20.9910 C.ar   40  TYR40       0.0417
     75  CE2       -2.6450    2.3490   18.5990 C.ar   40  TYR40       0.0417
     76  CZ        -1.9970    2.6130   19.7700 C.ar   40  TYR40       0.1957
     77  OH        -0.7550    3.2730   19.7430 O.3    40  TYR40      -0.2866
     78  N          4.1660   -2.5910   31.9370 N.3    99  ASN99      -0.1240
     79  CA         5.5530   -2.9530   31.4390 C.3    99  ASN99       0.1653
     80  C          6.4100   -1.6950   31.5670 C.2    99  ASN99       0.2266
     81  O          5.9920   -0.5810   31.7900 O.2    99  ASN99      -0.2867
     82  CB         5.4510   -3.4980   30.0330 C.3    99  ASN99       0.1155
     83  CG         4.8490   -2.6720   28.9240 C.2    99  ASN99       0.2627
     84  OD1        4.8250   -1.4320   28.9900 O.2    99  ASN99      -0.2716
     85  ND2        4.4510   -3.3870   27.8780 N.am   99  ASN99      -0.0877
     86  N          9.9000   -0.4120   29.2550 N.3   101  TRP101     -0.1241
     87  CA        10.6410   -0.8510   28.0560 C.3   101  TRP101      0.1605
     88  C         11.2500    0.3660   27.4090 C.2   101  TRP101      0.2264
     89  O         10.9210    1.4990   27.7450 O.2   101  TRP101     -0.2867
     90  CB         9.6750   -1.5650   27.1080 C.3   101  TRP101      0.0550
     91  CG         8.5490   -0.7380   26.5900 C.ar  101  TRP101      0.0003
     92  CD1        7.3750   -0.5720   27.3900 C.ar  101  TRP101      0.0946
     93  CD2        8.3380    0.0310   25.4390 C.ar  101  TRP101      0.0152
     94  NE1        6.4950    0.2340   26.7090 N.ar  101  TRP101     -0.2442
     95  CE2        7.0600    0.6100   25.4920 C.ar  101  TRP101      0.0810
     96  CE3        9.1100    0.2880   24.3040 C.ar  101  TRP101      0.0012
     97  CZ2        6.5390    1.4300   24.5040 C.ar  101  TRP101      0.0191
     98  CZ3        8.6230    1.0690   23.2750 C.ar  101  TRP101      0.0001
     99  CH2        7.3030    1.6210   23.3680 C.ar  101  TRP101      0.0015
    100  N          8.6670   -1.2990   17.5280 N.3   158  VAL158     -0.1231
    101  CA         9.1880   -0.2180   18.3310 C.3   158  VAL158      0.1692
    102  C          9.9540   -0.6980   19.5540 C.2   158  VAL158      0.2592
    103  O         10.6890    0.0850   20.1150 O.2   158  VAL158     -0.2718
    104  CB         8.0270    0.7420   18.7270 C.3   158  VAL158      0.0266
    105  CG1        7.1800    0.0600   19.8060 C.3   158  VAL158      0.0020
    106  CG2        8.6500    2.0300   19.2310 C.3   158  VAL158      0.0020
    107  N          9.7560   -1.8950   20.0760 N.am  159  PHE159     -0.1976
    108  CA        10.4200   -2.3210   21.3180 C.3   159  PHE159      0.1639
    109  C         11.8860   -2.6940   21.0390 C.2   159  PHE159      0.2290
    110  O         12.0940   -3.2920   19.9720 O.2   159  PHE159     -0.2864
    111  CB         9.7270   -3.6040   21.8400 C.3   159  PHE159      0.0560
    112  CG         8.3170   -3.2270   22.3250 C.ar  159  PHE159     -0.0200
    113  CD1        7.2710   -3.1990   21.4300 C.ar  159  PHE159     -0.0042
    114  CD2        8.1070   -3.0000   23.6730 C.ar  159  PHE159     -0.0042
    115  CE1        5.9730   -2.8560   21.8490 C.ar  159  PHE159     -0.0003
    116  CE2        6.8090   -2.6910   24.1050 C.ar  159  PHE159     -0.0003
    117  CZ         5.7700   -2.6050   23.2300 C.ar  159  PHE159     -0.0000
@<TRIPOS>BOND
     1    30    28   ar
     2    30    31   ar
     3    28    25   ar
     4   100   101    1
     5    18    19    1
     6    31    29   ar
     7    22    19    1
     8    22    23    1
     9    25    23   ar
    10    25    27   ar
    11   101   104    1
    12   101   102    1
    13    75    73   ar
    14    75    76   ar
    15    73    71   ar
    16   104   106    1
    17   104   105    1
    18    19    20    1
    19    23    24   ar
    20    21    20    2
    21    29    27   ar
    22    27    26   ar
    23   102   107   am
    24   102   103    2
    25    77    76    1
    26    76    74   ar
    27    71    70    1
    28    71    72   ar
    29    70    67    1
    30   110   109    2
    31    68    67    1
    32    68    69    2
    33   107   108    1
    34    67    66    1
    35    24    26   ar
    36    74    72   ar
    37   109   108    1
    38   108   111    1
    39   113   115   ar
    40   113   112   ar
    41    65    63   am
    42    64    63    2
    43   111   112    1
    44   115   117   ar
    45    63    62    1
    46   112   114   ar
    47    39    38   ar
    48    32    33    1
    49   117   116   ar
    50    98    99   ar
    51    98    96   ar
    52    99    97   ar
    53    36    33    1
    54    36    37    1
    55   114   116   ar
    56    62    59    1
    57    38    40   ar
    58    38    37    1
    59    35    34    2
    60    33    34    1
    61    96    93   ar
    62    60    59    1
    63    60    61    1
    64    59    58    1
    65    48    46   ar
    66    97    95   ar
    67    56    55   ar
    68    93    95   ar
    69    93    91   ar
    70    95    94   ar
    71    57    55   ar
    72    46    47   ar
    73    46    45    1
    74    55    54    1
    75    91    90    1
    76    91    92   ar
    77    45    42    1
    78    94    92   ar
    79    16    14   ar
    80    16    17   ar
    81    90    87    1
    82    41    42    1
    83    88    89    2
    84    88    87    1
    85    14    12   ar
    86    54    53    1
    87    17    15   ar
    88    42    43    1
    89    85    83   am
    90    87    86    1
    91    53    50    1
    92    12    11    1
    93    12    13   ar
    94    44    43    2
    95    15    13   ar
    96    11     8    1
    97    83    84    2
    98    83    82    1
    99    50    49    1
   100    50    51    1
   101     9     8    1
   102     9    10    2
   103     5     6    1
   104     5     2    1
   105    82    79    1
   106    52    51    2
   107     8     7    1
   108    79    80    1
   109    79    78    1
   110     2     1    1
   111     2     3    1
   112    80    81    2
   113     3     4    2
