@<TRIPOS>MOLECULE
tmp/1ajnB00.pdb
 103 100 0 0 0
SMALL
GASTEIGER

@<TRIPOS>ATOM
      1  N         13.9750   42.1660   34.3560 N.3     1  SER1       -0.1217
      2  CA        13.3490   41.9550   33.0440 C.3     1  SER1        0.1889
      3  C         12.4090   43.1190   32.8000 C.2     1  SER1        0.2288
      4  O         11.5820   43.3380   33.7040 O.2     1  SER1       -0.2866
      5  CB        12.3980   40.7510   33.0730 C.3     1  SER1        0.2089
      6  OG        13.0770   39.5790   33.3940 O.3     1  SER1       -0.2183
      7  N         13.6020   40.2230   28.6620 N.3    22  PRO22      -0.2102
      8  CA        13.6720   39.2870   29.7750 C.3    22  PRO22       0.1504
      9  C         15.1250   39.2630   30.2420 C.2    22  PRO22       0.2576
     10  O         16.0080   39.2420   29.3750 O.2    22  PRO22      -0.2718
     11  CB        13.1920   37.9250   29.2400 C.3    22  PRO22       0.0282
     12  CG        13.4710   38.0950   27.7620 C.3    22  PRO22       0.0208
     13  CD        13.1830   39.5430   27.4300 C.3    22  PRO22       0.0893
     14  N         15.3810   39.3440   31.5340 N.am   23  GLN23      -0.1966
     15  CA        16.7630   39.4220   32.0000 C.3    23  GLN23       0.1733
     16  C         17.1360   38.1890   32.7880 C.2    23  GLN23       0.2616
     17  O         16.8470   38.1680   33.9620 O.2    23  GLN23      -0.2715
     18  CB        17.0110   40.7100   32.8200 C.3    23  GLN23       0.0408
     19  CG        16.9680   41.9630   31.8890 C.3    23  GLN23       0.0908
     20  CD        17.2230   43.2540   32.6710 C.2    23  GLN23       0.2608
     21  OE1       16.3280   43.6430   33.4450 O.2    23  GLN23      -0.2717
     22  NE2       18.4070   43.8730   32.4670 N.am   23  GLN23      -0.0878
     23  N         17.9070   37.2670   32.2180 N.am   24  PHE24      -0.1974
     24  CA        18.1810   36.0240   32.9300 C.3    24  PHE24       0.1639
     25  C         19.6560   35.9700   33.2010 C.2    24  PHE24       0.2290
     26  O         20.1770   34.9850   33.7230 O.2    24  PHE24      -0.2864
     27  CB        17.7650   34.8480   32.0010 C.3    24  PHE24       0.0560
     28  CG        16.3720   34.7760   31.4890 C.ar   24  PHE24      -0.0200
     29  CD1       15.4070   34.2600   32.3720 C.ar   24  PHE24      -0.0042
     30  CD2       15.9940   35.0840   30.1950 C.ar   24  PHE24      -0.0042
     31  CE1       14.0850   34.0930   31.9360 C.ar   24  PHE24      -0.0003
     32  CE2       14.6790   34.9150   29.7910 C.ar   24  PHE24      -0.0003
     33  CZ        13.7050   34.4630   30.6650 C.ar   24  PHE24      -0.0000
     34  N          7.8190   31.4860   25.2330 N.3    56  VAL56      -0.1231
     35  CA         7.5710   32.6150   26.1490 C.3    56  VAL56       0.1692
     36  C          7.5420   33.9140   25.3870 C.2    56  VAL56       0.2592
     37  O          6.9350   34.9160   25.8270 O.2    56  VAL56      -0.2718
     38  CB         8.5900   32.5590   27.2990 C.3    56  VAL56       0.0266
     39  CG1        8.4090   33.6780   28.3270 C.3    56  VAL56       0.0020
     40  CG2        8.4960   31.2030   28.0050 C.3    56  VAL56       0.0020
     41  N          8.2480   34.0950   24.2560 N.am   57  PHE57      -0.1976
     42  CA         8.2310   35.3750   23.5500 C.3    57  PHE57       0.1639
     43  C          7.8990   35.2210   22.0840 C.2    57  PHE57       0.2290
     44  O          8.7520   34.5920   21.4030 O.2    57  PHE57      -0.2864
     45  CB         9.6040   36.0950   23.6650 C.3    57  PHE57       0.0560
     46  CG        10.2250   35.9410   25.0200 C.ar   57  PHE57      -0.0200
     47  CD1        9.7180   36.6930   26.0760 C.ar   57  PHE57      -0.0042
     48  CD2       11.2360   35.0470   25.2890 C.ar   57  PHE57      -0.0042
     49  CE1       10.1950   36.5230   27.3530 C.ar   57  PHE57      -0.0003
     50  CE2       11.7370   34.8850   26.5660 C.ar   57  PHE57      -0.0003
     51  CZ        11.1820   35.6040   27.6190 C.ar   57  PHE57      -0.0000
     52  N          6.6580   38.1040   28.8580 N.3    67  SER67      -0.1217
     53  CA         6.6620   37.9240   30.2980 C.3    67  SER67       0.1889
     54  C          7.7150   38.7570   31.0410 C.2    67  SER67       0.2288
     55  O          8.7410   39.1400   30.4520 O.2    67  SER67      -0.2866
     56  CB         7.0290   36.4640   30.6610 C.3    67  SER67       0.2089
     57  OG         5.8500   35.7050   30.7630 O.3    67  SER67      -0.2183
     58  N          9.2820   38.5580   35.4360 N.3    69  ALA69      -0.1245
     59  CA         9.1100   37.8980   36.7270 C.3    69  ALA69       0.1562
     60  C          8.1010   38.5780   37.6380 C.2    69  ALA69       0.2260
     61  O          8.2080   39.8060   37.7520 O.2    69  ALA69      -0.2867
     62  CB        10.5060   37.8740   37.3620 C.3    69  ALA69       0.0290
     63  N          7.3350   38.1740   41.1450 N.3    71  PHE71      -0.1241
     64  CA         7.7210   38.3770   42.5110 C.3    71  PHE71       0.1605
     65  C          6.5720   38.5940   43.4840 C.2    71  PHE71       0.2264
     66  O          6.7150   39.4510   44.3620 O.2    71  PHE71      -0.2867
     67  CB         8.6740   39.5780   42.7440 C.3    71  PHE71       0.0534
     68  CG        10.0210   39.1670   42.2210 C.ar   71  PHE71      -0.0203
     69  CD1       10.8590   38.3740   42.9660 C.ar   71  PHE71      -0.0042
     70  CD2       10.3940   39.5980   40.9590 C.ar   71  PHE71      -0.0042
     71  CE1       12.1070   38.0120   42.4660 C.ar   71  PHE71      -0.0003
     72  CE2       11.6310   39.2260   40.4730 C.ar   71  PHE71      -0.0003
     73  CZ        12.4950   38.4360   41.2020 C.ar   71  PHE71      -0.0000
     74  N          1.2970   27.7110   28.9980 N.3   154  TRP154     -0.1241
     75  CA         2.1930   28.5110   28.1700 C.3   154  TRP154      0.1605
     76  C          2.2490   27.9950   26.7140 C.2   154  TRP154      0.2264
     77  O          2.5320   28.7090   25.7230 O.2   154  TRP154     -0.2867
     78  CB         3.5800   28.4710   28.8230 C.3   154  TRP154      0.0550
     79  CG         4.1920   29.8230   29.0590 C.ar  154  TRP154      0.0003
     80  CD1        4.3410   30.8560   28.1850 C.ar  154  TRP154      0.0946
     81  CD2        4.8290   30.2250   30.2770 C.ar  154  TRP154      0.0152
     82  NE1        4.9010   31.9170   28.8280 N.ar  154  TRP154     -0.2442
     83  CE2        5.1950   31.5740   30.1240 C.ar  154  TRP154      0.0810
     84  CE3        4.9520   29.6150   31.5410 C.ar  154  TRP154      0.0012
     85  CZ2        5.7800   32.3130   31.1560 C.ar  154  TRP154      0.0191
     86  CZ3        5.5690   30.3180   32.5640 C.ar  154  TRP154      0.0001
     87  CH2        5.9850   31.6400   32.3360 C.ar  154  TRP154      0.0015
     88  N          4.3610   35.2150   37.6160 N.3   177  ILE177     -0.1245
     89  CA         4.8630   35.7310   36.3910 C.3   177  ILE177      0.1561
     90  C          3.8900   36.7710   35.8760 C.2   177  ILE177      0.2260
     91  O          2.7110   36.4600   35.7830 O.2   177  ILE177     -0.2867
     92  CB         4.9100   34.6720   35.2060 C.3   177  ILE177      0.0252
     93  CG1        5.5950   33.4060   35.5880 C.3   177  ILE177      0.0019
     94  CG2        5.5670   35.2390   33.9430 C.3   177  ILE177      0.0019
     95  CD1        7.0820   33.4330   35.9110 C.3   177  ILE177      0.0001
     96  N          9.7810   44.6930   36.7690 N.3   241  ASN241     -0.1240
     97  CA         9.6740   43.8620   37.9760 C.3   241  ASN241      0.1653
     98  C          9.2210   44.6720   39.2070 C.2   241  ASN241      0.2266
     99  O          9.5580   44.4340   40.3550 O.2   241  ASN241     -0.2867
    100  CB        10.9340   43.1140   38.2820 C.3   241  ASN241      0.1155
    101  CG        11.4590   42.1080   37.2750 C.2   241  ASN241      0.2627
    102  OD1       12.6850   42.0250   37.0750 O.2   241  ASN241     -0.2716
    103  ND2       10.6150   41.3550   36.5790 N.am  241  ASN241     -0.0877
@<TRIPOS>BOND
     1    44    43    2
     2    43    42    1
     3    42    45    1
     4    42    41    1
     5    45    46    1
     6    41    36   am
     7    46    48   ar
     8    46    47   ar
     9    34    35    1
    10    48    50   ar
    11    36    37    2
    12    36    35    1
    13    77    76    2
    14    47    49   ar
    15    35    38    1
    16    50    51   ar
    17    76    75    1
    18    38    40    1
    19    38    39    1
    20    49    51   ar
    21    13    12    1
    22    13     7    1
    23    12    11    1
    24    75    78    1
    25    75    74    1
    26    80    82   ar
    27    80    79   ar
    28     7     8    1
    29    78    79    1
    30    82    83   ar
    31    52    53    1
    32    79    81   ar
    33    11     8    1
    34    10     9    2
    35     8     9    1
    36    32    30   ar
    37    32    33   ar
    38    83    81   ar
    39    83    85   ar
    40    30    28   ar
    41     9    14   am
    42    81    84   ar
    43    53    56    1
    44    53    54    1
    45    55    54    2
    46    56    57    1
    47    33    31   ar
    48    85    87   ar
    49    28    27    1
    50    28    29   ar
    51    14    15    1
    52    84    86   ar
    53    19    20    1
    54    19    18    1
    55    31    29   ar
    56    15    16    1
    57    15    18    1
    58    27    24    1
    59    23    16   am
    60    23    24    1
    61    87    86   ar
    62    22    20   am
    63    20    21    2
    64    16    17    2
    65     3     2    1
    66     3     4    2
    67    24    25    1
    68     2     5    1
    69     2     1    1
    70     5     6    1
    71    25    26    2
    72    94    92    1
    73    92    93    1
    74    92    89    1
    75    58    59    1
    76    93    95    1
    77    91    90    2
    78    90    89    1
    79    89    88    1
    80   103   101   am
    81    59    62    1
    82    59    60    1
    83    96    97    1
    84   102   101    2
    85   101   100    1
    86    60    61    2
    87    97   100    1
    88    97    98    1
    89    98    99    2
    90    72    70   ar
    91    72    73   ar
    92    70    68   ar
    93    63    64    1
    94    73    71   ar
    95    68    67    1
    96    68    69   ar
    97    71    69   ar
    98    64    67    1
    99    64    65    1
   100    65    66    2
