@<TRIPOS>MOLECULE
tmp/1ajpB00.pdb
 110 108 0 0 0
SMALL
GASTEIGER

@<TRIPOS>ATOM
      1  N         13.9290   42.1310   34.3700 N.3     1  SER1       -0.1217
      2  CA        13.3860   41.9810   32.9920 C.3     1  SER1        0.1889
      3  C         12.4380   43.1290   32.7480 C.2     1  SER1        0.2288
      4  O         11.5960   43.3210   33.6420 O.2     1  SER1       -0.2866
      5  CB        12.3900   40.7720   32.9450 C.3     1  SER1        0.2089
      6  OG        13.0920   39.6130   33.0790 O.3     1  SER1       -0.2183
      7  N         13.5350   40.2840   28.6460 N.3    22  PRO22      -0.2102
      8  CA        13.6010   39.3470   29.7580 C.3    22  PRO22       0.1504
      9  C         15.0590   39.2710   30.2200 C.2    22  PRO22       0.2576
     10  O         15.9230   39.2880   29.3490 O.2    22  PRO22      -0.2718
     11  CB        13.0900   38.0120   29.1910 C.3    22  PRO22       0.0282
     12  CG        13.4690   38.1590   27.7260 C.3    22  PRO22       0.0208
     13  CD        13.1950   39.6020   27.3820 C.3    22  PRO22       0.0893
     14  N         15.3580   39.3520   31.5120 N.am   23  GLN23      -0.1966
     15  CA        16.7400   39.4300   31.9380 C.3    23  GLN23       0.1733
     16  C         17.1230   38.2060   32.7290 C.2    23  GLN23       0.2616
     17  O         16.7770   38.1130   33.8820 O.2    23  GLN23      -0.2715
     18  CB        16.9970   40.7490   32.7000 C.3    23  GLN23       0.0408
     19  CG        16.8910   41.9980   31.8230 C.3    23  GLN23       0.0908
     20  CD        17.1630   43.3010   32.6070 C.2    23  GLN23       0.2608
     21  OE1       16.2740   43.6580   33.3970 O.2    23  GLN23      -0.2717
     22  NE2       18.3390   43.9320   32.3920 N.am   23  GLN23      -0.0878
     23  N         17.9430   37.3260   32.1520 N.am   24  PHE24      -0.1974
     24  CA        18.2090   36.0690   32.8630 C.3    24  PHE24       0.1639
     25  C         19.6710   35.9220   33.1260 C.2    24  PHE24       0.2290
     26  O         20.0760   34.8630   33.6180 O.2    24  PHE24      -0.2864
     27  CB        17.7550   34.9290   31.9440 C.3    24  PHE24       0.0560
     28  CG        16.3480   34.8680   31.4470 C.ar   24  PHE24      -0.0200
     29  CD1       15.3830   34.4000   32.3280 C.ar   24  PHE24      -0.0042
     30  CD2       16.0010   35.1410   30.1290 C.ar   24  PHE24      -0.0042
     31  CE1       14.0520   34.2670   31.9020 C.ar   24  PHE24      -0.0003
     32  CE2       14.6880   34.9710   29.7120 C.ar   24  PHE24      -0.0003
     33  CZ        13.7010   34.5500   30.6050 C.ar   24  PHE24      -0.0000
     34  N          7.8350   31.4830   25.1540 N.3    56  VAL56      -0.1231
     35  CA         7.5370   32.6270   26.0940 C.3    56  VAL56       0.1692
     36  C          7.5150   33.9220   25.3370 C.2    56  VAL56       0.2592
     37  O          6.8510   34.8840   25.7420 O.2    56  VAL56      -0.2718
     38  CB         8.5450   32.5600   27.2460 C.3    56  VAL56       0.0266
     39  CG1        8.3950   33.6710   28.2680 C.3    56  VAL56       0.0020
     40  CG2        8.4660   31.1730   27.9280 C.3    56  VAL56       0.0020
     41  N          8.2210   34.1170   24.2060 N.am   57  PHE57      -0.1976
     42  CA         8.2020   35.4050   23.4990 C.3    57  PHE57       0.1639
     43  C          7.9130   35.2370   22.0080 C.2    57  PHE57       0.2290
     44  O          8.7020   34.5610   21.3080 O.2    57  PHE57      -0.2864
     45  CB         9.5350   36.2020   23.6550 C.3    57  PHE57       0.0560
     46  CG        10.2250   36.0040   24.9760 C.ar   57  PHE57      -0.0200
     47  CD1        9.6820   36.6550   26.0710 C.ar   57  PHE57      -0.0042
     48  CD2       11.3040   35.1820   25.1920 C.ar   57  PHE57      -0.0042
     49  CE1       10.1720   36.4740   27.3310 C.ar   57  PHE57      -0.0003
     50  CE2       11.8300   34.9860   26.4430 C.ar   57  PHE57      -0.0003
     51  CZ        11.2080   35.5810   27.5380 C.ar   57  PHE57      -0.0000
     52  N          6.5860   38.1810   28.7990 N.3    67  SER67      -0.1202
     53  CA         6.5970   37.9810   30.2370 C.3    67  SER67       0.2020
     54  C          7.6480   38.8480   30.9660 C.2    67  SER67       0.2619
     55  O          8.6660   39.2340   30.3510 O.2    67  SER67      -0.2717
     56  CB         7.1530   36.5240   30.4520 C.3    67  SER67       0.2103
     57  OG         6.0280   35.6980   30.6890 O.3    67  SER67      -0.2182
     58  N          7.5200   39.0520   32.2770 N.am   68  THR68      -0.1938
     59  CA         8.5760   39.4920   33.1830 C.3    68  THR68       0.2028
     60  C          8.3210   38.7510   34.5030 C.2    68  THR68       0.2642
     61  O          7.1500   38.4020   34.7400 O.2    68  THR68      -0.2714
     62  CB         8.6170   41.0150   33.3930 C.3    68  THR68       0.1808
     63  OG1        7.4540   41.5540   34.0540 O.3    68  THR68      -0.2208
     64  CG2        8.6810   41.8330   32.1010 C.3    68  THR68       0.0379
     65  N          9.2960   38.5050   35.3530 N.am   69  ALA69      -0.1977
     66  CA         9.1030   37.8440   36.6410 C.3    69  ALA69       0.1597
     67  C          8.1250   38.5990   37.5200 C.2    69  ALA69       0.2287
     68  O          8.2150   39.8340   37.5370 O.2    69  ALA69      -0.2864
     69  CB        10.4950   37.7300   37.2570 C.3    69  ALA69       0.0319
     70  N          7.3540   38.1680   41.1380 N.3    71  PHE71      -0.1241
     71  CA         7.7330   38.3380   42.5140 C.3    71  PHE71       0.1605
     72  C          6.5660   38.5480   43.4650 C.2    71  PHE71       0.2264
     73  O          6.7290   39.3740   44.3650 O.2    71  PHE71      -0.2867
     74  CB         8.7070   39.5210   42.8200 C.3    71  PHE71       0.0534
     75  CG        10.0050   39.1580   42.1510 C.ar   71  PHE71      -0.0203
     76  CD1       10.8650   38.3550   42.8550 C.ar   71  PHE71      -0.0042
     77  CD2       10.3190   39.6000   40.8560 C.ar   71  PHE71      -0.0042
     78  CE1       12.0870   37.9730   42.3230 C.ar   71  PHE71      -0.0003
     79  CE2       11.5420   39.1960   40.3410 C.ar   71  PHE71      -0.0003
     80  CZ        12.4220   38.3890   41.0360 C.ar   71  PHE71      -0.0000
     81  N          1.2970   27.7680   28.9710 N.3   154  TRP154     -0.1241
     82  CA         2.2120   28.5230   28.1380 C.3   154  TRP154      0.1605
     83  C          2.2940   28.0210   26.6880 C.2   154  TRP154      0.2264
     84  O          2.5410   28.7580   25.7020 O.2   154  TRP154     -0.2867
     85  CB         3.5930   28.4800   28.8020 C.3   154  TRP154      0.0550
     86  CG         4.1850   29.8440   29.0670 C.ar  154  TRP154      0.0003
     87  CD1        4.3300   30.8780   28.1860 C.ar  154  TRP154      0.0946
     88  CD2        4.8020   30.2700   30.2880 C.ar  154  TRP154      0.0152
     89  NE1        4.9490   31.9300   28.8000 N.ar  154  TRP154     -0.2442
     90  CE2        5.2030   31.6120   30.1050 C.ar  154  TRP154      0.0810
     91  CE3        4.9410   29.6850   31.5530 C.ar  154  TRP154      0.0012
     92  CZ2        5.7770   32.3570   31.1330 C.ar  154  TRP154      0.0191
     93  CZ3        5.5320   30.4010   32.5830 C.ar  154  TRP154      0.0001
     94  CH2        5.9900   31.7100   32.3260 C.ar  154  TRP154      0.0015
     95  N          4.3090   35.1720   37.5850 N.3   177  ILE177     -0.1245
     96  CA         4.7930   35.7090   36.3540 C.3   177  ILE177      0.1561
     97  C          3.8370   36.7530   35.7770 C.2   177  ILE177      0.2260
     98  O          2.6230   36.5530   35.7160 O.2   177  ILE177     -0.2867
     99  CB         4.9470   34.6570   35.2030 C.3   177  ILE177      0.0252
    100  CG1        5.6280   33.3810   35.6530 C.3   177  ILE177      0.0019
    101  CG2        5.6490   35.2210   33.9810 C.3   177  ILE177      0.0019
    102  CD1        7.0530   33.3350   36.1300 C.3   177  ILE177      0.0001
    103  N          9.7660   44.6830   36.7820 N.3   241  ASN241     -0.1240
    104  CA         9.7370   43.8610   38.0130 C.3   241  ASN241      0.1653
    105  C          9.2410   44.6330   39.2330 C.2   241  ASN241      0.2266
    106  O          9.6160   44.3390   40.3930 O.2   241  ASN241     -0.2867
    107  CB        11.1570   43.3540   38.2680 C.3   241  ASN241      0.1155
    108  CG        11.5400   42.3650   37.1960 C.2   241  ASN241      0.2627
    109  OD1       10.7040   41.7320   36.5580 O.2   241  ASN241     -0.2716
    110  ND2       12.8670   42.2410   37.0100 N.am  241  ASN241     -0.0877
@<TRIPOS>BOND
     1    44    43    2
     2    43    42    1
     3    42    45    1
     4    42    41    1
     5    45    46    1
     6    41    36   am
     7    46    48   ar
     8    46    47   ar
     9    34    35    1
    10    48    50   ar
    11    36    37    2
    12    36    35    1
    13    84    83    2
    14    47    49   ar
    15    35    38    1
    16    50    51   ar
    17    83    82    1
    18    38    40    1
    19    38    39    1
    20    49    51   ar
    21    13    12    1
    22    13     7    1
    23    12    11    1
    24    82    85    1
    25    82    81    1
    26    87    89   ar
    27    87    86   ar
    28     7     8    1
    29    52    53    1
    30    89    90   ar
    31    85    86    1
    32    86    88   ar
    33    11     8    1
    34    10     9    2
    35    32    30   ar
    36    32    33   ar
    37     8     9    1
    38    90    88   ar
    39    90    92   ar
    40    30    28   ar
    41     9    14   am
    42    53    56    1
    43    53    54    1
    44    88    91   ar
    45    55    54    2
    46    56    57    1
    47    33    31   ar
    48    54    58   am
    49    92    94   ar
    50    28    27    1
    51    28    29   ar
    52    14    15    1
    53    91    93   ar
    54    19    20    1
    55    19    18    1
    56    31    29   ar
    57    15    18    1
    58    15    16    1
    59    27    24    1
    60    64    62    1
    61    23    16   am
    62    23    24    1
    63    58    59    1
    64    94    93   ar
    65    22    20   am
    66    20    21    2
    67    16    17    2
    68     3     2    1
    69     3     4    2
    70    24    25    1
    71     5     2    1
    72     5     6    1
    73     2     1    1
    74    25    26    2
    75    59    62    1
    76    59    60    1
    77    62    63    1
    78   101    99    1
    79    60    61    2
    80    60    65   am
    81    99   100    1
    82    99    96    1
    83    65    66    1
    84   100   102    1
    85    98    97    2
    86    97    96    1
    87    96    95    1
    88   109   108    2
    89    66    69    1
    90    66    67    1
    91   103   104    1
    92   110   108   am
    93   108   107    1
    94    67    68    2
    95   104   107    1
    96   104   105    1
    97   105   106    2
    98    79    77   ar
    99    79    80   ar
   100    77    75   ar
   101    80    78   ar
   102    70    71    1
   103    75    74    1
   104    75    76   ar
   105    78    76   ar
   106    71    74    1
   107    71    72    1
   108    72    73    2
