@<TRIPOS>MOLECULE
tmp/1ajsA00.pdb
 194 186 0 0 0
SMALL
GASTEIGER

@<TRIPOS>ATOM
      1  N        -41.6240  -46.2880   -5.2600 N.3    17  VAL17      -0.1231
      2  CA       -40.9950  -46.0230   -3.9610 C.3    17  VAL17       0.1692
      3  C        -41.9770  -45.3780   -2.9880 C.2    17  VAL17       0.2592
      4  O        -41.9260  -45.6670   -1.7810 O.2    17  VAL17      -0.2718
      5  CB       -39.6860  -45.2480   -4.1130 C.3    17  VAL17       0.0266
      6  CG1      -39.8510  -43.8310   -4.6450 C.3    17  VAL17       0.0020
      7  CG2      -38.9240  -45.2500   -2.7820 C.3    17  VAL17       0.0020
      8  N        -42.8140  -44.5000   -3.5460 N.am   18  PHE18      -0.1976
      9  CA       -43.8010  -43.8150   -2.6690 C.3    18  PHE18       0.1639
     10  C        -44.9690  -44.7530   -2.3910 C.2    18  PHE18       0.2290
     11  O        -45.4980  -44.7410   -1.2720 O.2    18  PHE18      -0.2864
     12  CB       -44.1960  -42.4590   -3.2510 C.3    18  PHE18       0.0560
     13  CG       -43.2190  -41.3680   -2.8970 C.ar   18  PHE18      -0.0200
     14  CD1      -42.1020  -41.1510   -3.7020 C.ar   18  PHE18      -0.0042
     15  CD2      -43.4490  -40.5900   -1.7470 C.ar   18  PHE18      -0.0042
     16  CE1      -41.1800  -40.1470   -3.3410 C.ar   18  PHE18      -0.0003
     17  CE2      -42.5660  -39.5870   -1.3950 C.ar   18  PHE18      -0.0003
     18  CZ       -41.4290  -39.3890   -2.1830 C.ar   18  PHE18      -0.0000
     19  N        -37.7860  -46.6660    0.6620 N.3    37  VAL37      -0.1231
     20  CA       -37.2610  -45.2940    0.5340 C.3    37  VAL37       0.1692
     21  C        -35.9920  -45.0570    1.3460 C.2    37  VAL37       0.2592
     22  O        -35.8250  -45.5240    2.4740 O.2    37  VAL37      -0.2718
     23  CB       -38.3760  -44.2930    0.9260 C.3    37  VAL37       0.0266
     24  CG1      -38.6290  -44.2700    2.4340 C.3    37  VAL37       0.0020
     25  CG2      -38.0650  -42.8950    0.3930 C.3    37  VAL37       0.0020
     26  N        -35.1160  -44.2390    0.7770 N.am   38  GLY38      -0.1957
     27  CA       -33.8640  -43.8710    1.4380 C.3    38  GLY38       0.1869
     28  C        -34.1890  -42.7400    2.4340 C.2    38  GLY38       0.2309
     29  O        -34.1280  -41.5640    2.0770 O.2    38  GLY38      -0.2863
     30  N        -35.6690  -29.3590   -3.6090 N.3   107  GLY107     -0.1210
     31  CA       -34.9190  -30.6140   -3.3690 C.3   107  GLY107      0.1956
     32  C        -33.9480  -30.8370   -4.5370 C.2   107  GLY107      0.2612
     33  O        -33.7790  -30.0150   -5.4770 O.2   107  GLY107     -0.2717
     34  N        -33.2890  -32.0070   -4.5150 N.am  108  GLY108     -0.1942
     35  CA       -32.4130  -32.4260   -5.6000 C.3   108  GLY108      0.2014
     36  C        -33.1890  -32.6410   -6.8940 C.2   108  GLY108      0.2639
     37  O        -32.6770  -32.3850   -8.0090 O.2   108  GLY108     -0.2714
     38  N        -34.4400  -33.1090   -6.8050 N.am  109  THR109     -0.1950
     39  CA       -35.2550  -33.2940   -8.0210 C.3   109  THR109      0.1897
     40  C        -35.4500  -31.9690   -8.7630 C.2   109  THR109      0.2313
     41  O        -35.2760  -31.9130   -9.9870 O.2   109  THR109     -0.2863
     42  CB       -36.6710  -33.9310   -7.6950 C.3   109  THR109      0.1794
     43  OG1      -36.4020  -35.1750   -6.9680 O.3   109  THR109     -0.2208
     44  CG2      -37.5000  -34.1910   -8.9530 C.3   109  THR109      0.0378
     45  N        -32.3140  -30.9040  -10.5290 N.3   112  LEU112     -0.1245
     46  CA       -32.1290  -31.6690  -11.7550 C.3   112  LEU112      0.1561
     47  C        -33.0370  -31.1430  -12.8590 C.2   112  LEU112      0.2260
     48  O        -32.5930  -31.0080  -14.0240 O.2   112  LEU112     -0.2867
     49  CB       -32.3690  -33.1660  -11.4860 C.3   112  LEU112      0.0270
     50  CG       -31.2510  -33.9250  -10.7760 C.3   112  LEU112      0.0019
     51  CD1      -31.8510  -35.2320  -10.2100 C.3   112  LEU112      0.0001
     52  CD2      -30.1190  -34.2680  -11.7650 C.3   112  LEU112      0.0001
     53  N        -31.0860  -44.2680  -10.4020 N.3   140  TRP140     -0.1227
     54  CA       -32.3550  -43.8020   -9.7680 C.3   140  TRP140      0.1737
     55  C        -33.2950  -43.4840  -10.9550 C.2   140  TRP140      0.2595
     56  O        -32.9690  -42.6680  -11.8090 O.2   140  TRP140     -0.2718
     57  CB       -32.0650  -42.5510   -8.9700 C.3   140  TRP140      0.0564
     58  CG       -33.2100  -41.9170   -8.2600 C.ar  140  TRP140      0.0003
     59  CD1      -34.0620  -42.4940   -7.3610 C.ar  140  TRP140      0.0946
     60  CD2      -33.6250  -40.5330   -8.3550 C.ar  140  TRP140      0.0152
     61  NE1      -34.9560  -41.5740   -6.8700 N.ar  140  TRP140     -0.2442
     62  CE2      -34.7000  -40.3580   -7.4480 C.ar  140  TRP140      0.0810
     63  CE3      -33.1490  -39.4390   -9.0830 C.ar  140  TRP140      0.0012
     64  CZ2      -35.3300  -39.1230   -7.2770 C.ar  140  TRP140      0.0191
     65  CZ3      -33.7690  -38.2020   -8.9140 C.ar  140  TRP140      0.0001
     66  CH2      -34.8280  -38.0620   -8.0190 C.ar  140  TRP140      0.0015
     67  N        -34.4300  -44.1320  -11.0200 N.am  141  GLU141     -0.1979
     68  CA       -35.4290  -44.0280  -12.0860 C.3   141  GLU141      0.1602
     69  C        -35.8040  -42.6280  -12.5070 C.2   141  GLU141      0.2287
     70  O        -36.0710  -42.3490  -13.6930 O.2   141  GLU141     -0.2864
     71  CB       -36.7510  -44.6790  -11.5800 C.3   141  GLU141      0.0415
     72  CG       -37.2800  -44.1630  -10.2330 C.3   141  GLU141      0.1163
     73  CD       -38.4040  -43.1850  -10.1890 C.2   141  GLU141      0.3649
     74  OE1      -38.9420  -42.8890  -11.2800 O.co2 141  GLU141     -0.2457
     75  OE2      -38.8360  -42.6650   -9.1660 O.co2 141  GLU141     -0.2457
     76  N        -34.0140  -40.1800  -12.8350 N.3   143  HIS143     -0.1241
     77  CA       -33.0790  -39.5370  -13.7700 C.3   143  HIS143      0.1621
     78  C        -33.7110  -39.5200  -15.1710 C.2   143  HIS143      0.2264
     79  O        -33.7500  -38.5190  -15.8660 O.2   143  HIS143     -0.2867
     80  CB       -31.6440  -40.1340  -13.8870 C.3   143  HIS143      0.0745
     81  CG       -30.7780  -39.8000  -12.7120 C.ar  143  HIS143      0.0817
     82  ND1      -29.7190  -40.5610  -12.2670 N.ar  143  HIS143     -0.2268
     83  CD2      -30.8290  -38.7150  -11.8770 C.ar  143  HIS143      0.1154
     84  CE1      -29.1530  -39.9930  -11.2210 C.ar  143  HIS143      0.1986
     85  NE2      -29.8330  -38.8680  -10.9450 N.ar  143  HIS143     -0.2212
     86  N        -23.2790  -39.6930  -10.4520 N.3   189  HIS189     -0.1241
     87  CA       -23.6010  -39.6680   -9.0060 C.3   189  HIS189      0.1621
     88  C        -22.2960  -39.2150   -8.3120 C.2   189  HIS189      0.2264
     89  O        -21.2310  -39.8750   -8.4430 O.2   189  HIS189     -0.2867
     90  CB       -24.0380  -41.0230   -8.4180 C.3   189  HIS189      0.0745
     91  CG       -25.2530  -41.5890   -9.1120 C.ar  189  HIS189      0.0817
     92  ND1      -26.3180  -42.0520   -8.3900 N.ar  189  HIS189     -0.2268
     93  CD2      -25.5280  -41.8260  -10.4120 C.ar  189  HIS189      0.1154
     94  CE1      -27.2020  -42.5330   -9.2470 C.ar  189  HIS189      0.1986
     95  NE2      -26.7670  -42.3990  -10.4640 N.ar  189  HIS189     -0.2212
     96  N        -26.6190  -44.6060   -6.2330 N.3   194  ASN194     -0.1240
     97  CA       -27.9680  -45.1640   -6.0080 C.3   194  ASN194      0.1653
     98  C        -28.3820  -45.8610   -7.3030 C.2   194  ASN194      0.2266
     99  O        -28.4750  -45.1640   -8.3350 O.2   194  ASN194     -0.2867
    100  CB       -28.9220  -44.0310   -5.5590 C.3   194  ASN194      0.1155
    101  CG       -30.3720  -44.4440   -5.4420 C.2   194  ASN194      0.2627
    102  OD1      -30.7000  -45.6440   -5.4880 O.2   194  ASN194     -0.2716
    103  ND2      -31.2940  -43.5030   -5.2890 N.am  194  ASN194     -0.0877
    104  N        -25.0450  -35.3080   -9.7020 N.3   222  ASP222     -0.1239
    105  CA       -26.2410  -35.4370   -8.8130 C.3   222  ASP222      0.1674
    106  C        -25.5930  -35.6870   -7.4490 C.2   222  ASP222      0.2266
    107  O        -24.9790  -36.7680   -7.2840 O.2   222  ASP222     -0.2867
    108  CB       -27.1680  -36.5560   -9.2660 C.3   222  ASP222      0.1410
    109  CG       -28.3670  -36.6980   -8.3370 C.2   222  ASP222      0.3668
    110  OD1      -28.3740  -36.0830   -7.2570 O.co2 222  ASP222     -0.2456
    111  OD2      -29.3280  -37.4180   -8.6600 O.co2 222  ASP222     -0.2456
    112  N        -26.7930  -36.0740   -3.9900 N.3   224  ALA224     -0.1231
    113  CA       -27.8810  -36.1730   -3.0110 C.3   224  ALA224      0.1694
    114  C        -27.4640  -36.6440   -1.6410 C.2   224  ALA224      0.2592
    115  O        -28.2490  -36.4840   -0.6780 O.2   224  ALA224     -0.2718
    116  CB       -28.9820  -37.1020   -3.5460 C.3   224  ALA224      0.0304
    117  N        -26.2870  -37.2800   -1.5370 N.am  225  TYR225     -0.1976
    118  CA       -25.8560  -37.9080   -0.2720 C.3   225  TYR225      0.1639
    119  C        -24.5300  -37.4250    0.2540 C.2   225  TYR225      0.2290
    120  O        -23.8190  -38.2510    0.8750 O.2   225  TYR225     -0.2864
    121  CB       -25.7660  -39.4530   -0.5730 C.3   225  TYR225      0.0560
    122  CG       -27.0880  -40.0470   -1.0080 C.ar  225  TYR225     -0.0198
    123  CD1      -28.0530  -40.3830   -0.0430 C.ar  225  TYR225     -0.0009
    124  CD2      -27.3950  -40.2480   -2.3420 C.ar  225  TYR225     -0.0009
    125  CE1      -29.2960  -40.9070   -0.4260 C.ar  225  TYR225      0.0417
    126  CE2      -28.6190  -40.7930   -2.7520 C.ar  225  TYR225      0.0417
    127  CZ       -29.5640  -41.1120   -1.7790 C.ar  225  TYR225      0.1957
    128  OH       -30.7760  -41.6300   -2.1970 O.3   225  TYR225     -0.2866
    129  N        -28.9430  -31.9040   -2.9950 N.3   255  SER255     -0.1217
    130  CA       -30.1290  -32.1010   -2.1490 C.3   255  SER255      0.1889
    131  C        -29.6860  -32.0240   -0.6860 C.2   255  SER255      0.2288
    132  O        -28.6260  -32.5990   -0.3150 O.2   255  SER255     -0.2866
    133  CB       -30.7350  -33.4860   -2.3600 C.3   255  SER255      0.2089
    134  OG       -31.8020  -33.6970   -1.4450 O.3   255  SER255     -0.2183
    135  N        -32.0450  -33.0500    1.4960 N.3   257  SER257     -0.1202
    136  CA       -33.0940  -33.8980    2.1160 C.3   257  SER257      0.2020
    137  C        -32.5590  -34.8990    3.1420 C.2   257  SER257      0.2618
    138  O        -33.0910  -35.0900    4.2550 O.2   257  SER257     -0.2717
    139  CB       -33.8970  -34.6430    1.0580 C.3   257  SER257      0.2103
    140  OG       -34.5660  -33.7040    0.2070 O.3   257  SER257     -0.2182
    141  N        -31.4650  -35.5810    2.7490 N.am  258  LYS258     -0.1979
    142  CA       -30.9000  -36.6100    3.6310 C.3   258  LYS258      0.1596
    143  C        -29.9030  -36.0960    4.6280 C.2   258  LYS258      0.2287
    144  O        -29.9740  -36.4650    5.8230 O.2   258  LYS258     -0.2864
    145  CB       -30.2750  -37.7380    2.7820 C.3   258  LYS258      0.0298
    146  CG       -31.2690  -38.4210    1.8390 C.3   258  LYS258      0.0038
    147  CD       -31.3430  -37.6660    0.5100 C.3   258  LYS258      0.0206
    148  CE       -32.4720  -38.1540   -0.3560 C.3   258  LYS258      0.1093
    149  NZ       -32.1490  -37.8410   -1.7780 N.3   258  LYS258     -0.1314
    150  N        -36.2830  -33.7290    4.4000 N.3   263  TYR263     -0.1241
    151  CA       -36.9960  -34.3270    3.2670 C.3   263  TYR263      0.1605
    152  C        -38.1970  -33.4840    2.8140 C.2   263  TYR263      0.2264
    153  O        -38.2700  -33.1600    1.6270 O.2   263  TYR263     -0.2867
    154  CB       -37.5250  -35.7460    3.6040 C.3   263  TYR263      0.0534
    155  CG       -36.4480  -36.6620    4.1600 C.ar  263  TYR263     -0.0201
    156  CD1      -36.1550  -36.6970    5.5270 C.ar  263  TYR263     -0.0009
    157  CD2      -35.7430  -37.4630    3.2660 C.ar  263  TYR263     -0.0009
    158  CE1      -35.1270  -37.5420    6.0100 C.ar  263  TYR263      0.0417
    159  CE2      -34.7350  -38.2990    3.7220 C.ar  263  TYR263      0.0417
    160  CZ       -34.4450  -38.3430    5.0870 C.ar  263  TYR263      0.1957
    161  OH       -33.4460  -39.1720    5.5450 O.3   263  TYR263     -0.2866
    162  N        -38.0600  -29.6480    1.1320 N.3   266  ARG266     -0.1245
    163  CA       -37.6460  -29.5430   -0.2640 C.3   266  ARG266      0.1563
    164  C        -36.5750  -28.5100   -0.5510 C.2   266  ARG266      0.2260
    165  O        -36.7710  -27.5410   -1.3120 O.2   266  ARG266     -0.2867
    166  CB       -38.9190  -29.2120   -1.1230 C.3   266  ARG266      0.0307
    167  CG       -40.1230  -30.0930   -0.7540 C.3   266  ARG266      0.0489
    168  CD       -39.8350  -31.5730   -0.8140 C.3   266  ARG266      0.2205
    169  NE       -39.4130  -31.9840   -2.1450 N.pl3 266  ARG266     -0.0865
    170  CZ       -38.3320  -32.7590   -2.3560 C.cat 266  ARG266      0.5346
    171  NH1      -37.6130  -33.2470   -1.3450 N.pl3 266  ARG266      0.1354
    172  NH2      -37.9690  -32.9680   -3.6240 N.pl3 266  ARG266      0.1354
    173  N        -27.7400  -47.4420    0.9090 N.3   360  PHE360     -0.1241
    174  CA       -28.2290  -48.7070    0.3600 C.3   360  PHE360      0.1605
    175  C        -27.2130  -49.8400    0.1960 C.2   360  PHE360      0.2264
    176  O        -25.9890  -49.7090    0.1630 O.2   360  PHE360     -0.2867
    177  CB       -28.9070  -48.4490   -1.0130 C.3   360  PHE360      0.0534
    178  CG       -29.8430  -47.2560   -0.9980 C.ar  360  PHE360     -0.0203
    179  CD1      -31.0530  -47.3140   -0.3100 C.ar  360  PHE360     -0.0042
    180  CD2      -29.4630  -46.0980   -1.6810 C.ar  360  PHE360     -0.0042
    181  CE1      -31.9290  -46.2100   -0.2680 C.ar  360  PHE360     -0.0003
    182  CE2      -30.3270  -44.9930   -1.6620 C.ar  360  PHE360     -0.0003
    183  CZ       -31.5220  -45.0560   -0.9580 C.ar  360  PHE360     -0.0000
    184  N        -32.7000  -53.5550   -3.9770 N.3   386  ARG386     -0.1245
    185  CA       -32.1200  -52.4760   -3.1620 C.3   386  ARG386      0.1563
    186  C        -32.7570  -52.4100   -1.7790 C.2   386  ARG386      0.2260
    187  O        -34.0080  -52.3690   -1.6050 O.2   386  ARG386     -0.2867
    188  CB       -32.3160  -51.1030   -3.8740 C.3   386  ARG386      0.0307
    189  CG       -31.5590  -49.9770   -3.1280 C.3   386  ARG386      0.0489
    190  CD       -32.0290  -48.6280   -3.6230 C.3   386  ARG386      0.2205
    191  NE       -33.2290  -48.1960   -2.8850 N.pl3 386  ARG386     -0.0865
    192  CZ       -33.6820  -46.9340   -3.0080 C.cat 386  ARG386      0.5346
    193  NH1      -33.0490  -46.1050   -3.8560 N.pl3 386  ARG386      0.1354
    194  NH2      -34.7020  -46.5070   -2.2680 N.pl3 386  ARG386      0.1354
@<TRIPOS>BOND
     1    79    78    2
     2    78    77    1
     3    48    47    2
     4    80    77    1
     5    80    81    1
     6    77    76    1
     7    70    69    2
     8    47    46    1
     9    81    82   ar
    10    81    83   ar
    11    69    68    1
    12    82    84   ar
    13    68    71    1
    14    68    67    1
    15    83    85   ar
    16    56    55    2
    17    52    50    1
    18    46    49    1
    19    46    45    1
    20    71    72    1
    21    49    50    1
    22    74    73   ar
    23    84    85   ar
    24    67    55   am
    25    55    54    1
    26    50    51    1
    27    95    93   ar
    28    95    94   ar
    29    86    87    1
    30    93    91   ar
    31    53    54    1
    32    72    73    1
    33    73    75   ar
    34    41    40    2
    35    54    57    1
    36   104   105    1
    37   108   105    1
    38   108   109    1
    39    94    92   ar
    40    91    90    1
    41    91    92   ar
    42    63    65   ar
    43    63    60   ar
    44    87    90    1
    45    87    88    1
    46    57    58    1
    47    44    42    1
    48    65    66   ar
    49   105   106    1
    50    40    39    1
    51   111   109   ar
    52    89    88    2
    53    60    58   ar
    54    60    62   ar
    55   109   110   ar
    56    99    98    2
    57    58    59   ar
    58    39    42    1
    59    39    38    1
    60    66    64   ar
    61    37    36    2
    62    42    43    1
    63   106   107    2
    64    62    64   ar
    65    62    61   ar
    66    59    61   ar
    67    98    97    1
    68    36    38   am
    69    36    35    1
    70    96    97    1
    71    97   100    1
    72    35    34    1
    73   100   101    1
    74   102   101    2
    75    33    32    2
    76   101   103   am
    77     1     2    1
    78     6     5    1
    79    32    34   am
    80    32    31    1
    81     5     2    1
    82     5     7    1
    83   112   113    1
    84   184   185    1
    85     2     3    1
    86   188   185    1
    87   188   189    1
    88   193   192    1
    89    14    16   ar
    90    14    13   ar
    91   172   170    1
    92   190   189    1
    93   190   191    1
    94    30    31    1
    95   116   113    1
    96     8     3   am
    97     8     9    1
    98    16    18   ar
    99    12    13    1
   100    12     9    1
   101   185   186    1
   102   113   114    1
   103   192   191    2
   104   192   194    1
   105   129   130    1
   106     3     4    2
   107    13    15   ar
   108   126   124   ar
   109   126   127   ar
   110     9    10    1
   111    10    11    2
   112   133   130    1
   113   133   134    1
   114   170   169    2
   115   170   171    1
   116   124   122   ar
   117   128   127    1
   118    18    17   ar
   119   130   131    1
   120   169   168    1
   121   186   187    2
   122   127   125   ar
   123   149   148    1
   124    15    17   ar
   125   180   182   ar
   126   180   178   ar
   127   182   183   ar
   128   114   117   am
   129   114   115    2
   130   117   118    1
   131   165   164    2
   132   166   167    1
   133   166   163    1
   134   177   178    1
   135   177   174    1
   136   122   121    1
   137   122   123   ar
   138   178   179   ar
   139   183   181   ar
   140   168   167    1
   141   131   132    2
   142   121   118    1
   143   164   163    1
   144   125   123   ar
   145   148   147    1
   146   179   181   ar
   147   118   119    1
   148   163   162    1
   149   176   175    2
   150   175   174    1
   151   140   139    1
   152   119   120    2
   153   174   173    1
   154    25    23    1
   155   147   146    1
   156    20    19    1
   157    20    23    1
   158    20    21    1
   159    26    21   am
   160    26    27    1
   161    23    24    1
   162   139   136    1
   163    21    22    2
   164    27    28    1
   165   135   136    1
   166   153   152    2
   167   146   145    1
   168    29    28    2
   169   136   137    1
   170   141   137   am
   171   141   142    1
   172   145   142    1
   173   152   151    1
   174   137   138    2
   175   157   159   ar
   176   157   155   ar
   177   151   154    1
   178   151   150    1
   179   154   155    1
   180   142   143    1
   181   159   160   ar
   182   155   156   ar
   183   143   144    2
   184   160   161    1
   185   160   158   ar
   186   156   158   ar
