@<TRIPOS>MOLECULE
tmp/1ajxA00.pdb
 105 98 0 0 0
SMALL
GASTEIGER

@<TRIPOS>ATOM
      1  N         26.9880   24.2720    5.9210 N.3     8  ARG8       -0.1245
      2  CA        25.7390   24.8850    6.3770 C.3     8  ARG8        0.1563
      3  C         26.0540   26.2690    6.8840 C.2     8  ARG8        0.2260
      4  O         27.0300   26.4290    7.6170 O.2     8  ARG8       -0.2867
      5  CB        25.1410   24.0890    7.5090 C.3     8  ARG8        0.0307
      6  CG        24.5030   22.8110    7.0670 C.3     8  ARG8        0.0489
      7  CD        24.0180   22.1250    8.2370 C.3     8  ARG8        0.2205
      8  NE        23.1870   21.0030    7.8220 N.pl3   8  ARG8       -0.0865
      9  CZ        22.1710   20.5200    8.5580 C.cat   8  ARG8        0.5346
     10  NH1       21.8330   21.0540    9.7380 N.pl3   8  ARG8        0.1354
     11  NH2       21.5000   19.4410    8.1780 N.pl3   8  ARG8        0.1354
     12  N         20.8470   28.5540   11.7000 N.3    23  LEU23      -0.1245
     13  CA        21.0530   28.4070   10.2840 C.3    23  LEU23       0.1561
     14  C         20.3470   29.5520    9.4970 C.2    23  LEU23       0.2260
     15  O         19.1700   29.7650    9.7240 O.2    23  LEU23      -0.2867
     16  CB        20.4140   27.0770    9.9130 C.3    23  LEU23       0.0270
     17  CG        20.5010   26.4950    8.5190 C.3    23  LEU23       0.0019
     18  CD1       21.9310   26.2290    8.2340 C.3    23  LEU23       0.0001
     19  CD2       19.6040   25.1500    8.4500 C.3    23  LEU23       0.0001
     20  N         18.4050   30.5400    6.5740 N.3    25  ASP25      -0.1239
     21  CA        17.5710   29.7030    5.7270 C.3    25  ASP25       0.1674
     22  C         16.6520   30.4840    4.7810 C.2    25  ASP25       0.2266
     23  O         15.5590   30.8450    5.1630 O.2    25  ASP25      -0.2867
     24  CB        16.7470   28.7880    6.6620 C.3    25  ASP25       0.1410
     25  CG        16.0670   27.6280    5.9310 C.2    25  ASP25       0.3668
     26  OD1       15.8570   27.6880    4.6910 O.co2  25  ASP25      -0.2456
     27  OD2       15.7370   26.6460    6.6300 O.co2  25  ASP25      -0.2456
     28  N         14.9100   29.2780    2.3760 N.3    27  GLY27      -0.1210
     29  CA        13.7230   28.5690    2.0110 C.3    27  GLY27       0.1956
     30  C         12.6330   28.7100    3.0770 C.2    27  GLY27       0.2612
     31  O         11.4650   28.3710    2.8500 O.2    27  GLY27      -0.2717
     32  N         13.0030   29.1690    4.2710 N.am   28  ALA28      -0.1965
     33  CA        12.0250   29.3000    5.3740 C.3    28  ALA28       0.1728
     34  C         11.2590   30.6530    5.4030 C.2    28  ALA28       0.2616
     35  O         11.9070   31.6780    5.5110 O.2    28  ALA28      -0.2715
     36  CB        12.7500   29.1310    6.7000 C.3    28  ALA28       0.0334
     37  N          9.9220   30.6790    5.3650 N.am   29  ASP29      -0.1957
     38  CA         9.2990   31.9760    5.4840 C.3    29  ASP29       0.1840
     39  C          9.5100   32.6060    6.8850 C.2    29  ASP29       0.2622
     40  O          9.7010   33.8040    6.9760 O.2    29  ASP29      -0.2715
     41  CB         7.8280   31.8920    5.2780 C.3    29  ASP29       0.1450
     42  CG         7.4600   31.4230    3.9060 C.2    29  ASP29       0.3671
     43  OD1        8.2170   31.5380    2.9270 O.co2  29  ASP29      -0.2456
     44  OD2        6.2790   31.0480    3.7930 O.co2  29  ASP29      -0.2456
     45  N          9.4750   31.7880    7.9470 N.am   30  ASP30      -0.1971
     46  CA         9.5700   32.2420    9.3600 C.3    30  ASP30       0.1709
     47  C         10.7710   31.7740   10.1050 C.2    30  ASP30       0.2293
     48  O         11.5360   30.9690    9.6130 O.2    30  ASP30      -0.2864
     49  CB         8.4220   31.7210   10.1340 C.3    30  ASP30       0.1436
     50  CG         7.1130   31.9140    9.4070 C.2    30  ASP30       0.3671
     51  OD1        6.6050   33.0640    9.3070 O.co2  30  ASP30      -0.2456
     52  OD2        6.5810   30.8860    8.9180 O.co2  30  ASP30      -0.2456
     53  N         12.2980   30.0040   13.3150 N.3    32  VAL32      -0.1245
     54  CA        11.7950   29.0210   14.2930 C.3    32  VAL32       0.1561
     55  C         12.9400   28.5360   15.1580 C.2    32  VAL32       0.2260
     56  O         13.9670   28.1440   14.6350 O.2    32  VAL32      -0.2867
     57  CB        10.9100   27.8630   13.6070 C.3    32  VAL32       0.0252
     58  CG1       11.4550   27.4180   12.3020 C.3    32  VAL32       0.0019
     59  CG2       10.5910   26.7140   14.5590 C.3    32  VAL32       0.0019
     60  N          3.3230   24.8090   11.7820 N.3    47  ILE47      -0.1231
     61  CA         4.0710   25.1280   10.5840 C.3    47  ILE47       0.1692
     62  C          4.4710   23.7870    9.9980 C.2    47  ILE47       0.2593
     63  O          4.7890   22.8860   10.7380 O.2    47  ILE47      -0.2718
     64  CB         5.3080   25.9600   10.7720 C.3    47  ILE47       0.0266
     65  CG1        6.1670   25.3210   11.8090 C.3    47  ILE47       0.0019
     66  CG2        4.9660   27.4030   11.0850 C.3    47  ILE47       0.0020
     67  CD1        6.7890   26.3330   12.7190 C.3    47  ILE47       0.0001
     68  N          4.4770   23.6540    8.6720 N.am   48  GLY48      -0.1942
     69  CA         4.7820   22.3490    8.1000 C.3    48  GLY48       0.2014
     70  C          5.9120   22.3710    7.1420 C.2    48  GLY48       0.2639
     71  O          6.2400   23.4010    6.6110 O.2    48  GLY48      -0.2714
     72  N          6.5280   21.2460    6.9320 N.am   49  GLY49      -0.1939
     73  CA         7.5980   21.2220    5.9970 C.3    49  GLY49       0.2014
     74  C          7.8000   19.8090    5.5730 C.2    49  GLY49       0.2638
     75  O          6.8810   19.0080    5.6150 O.2    49  GLY49      -0.2714
     76  N          9.0290   19.4970    5.2110 N.am   50  ILE50      -0.1977
     77  CA         9.3600   18.1280    4.8630 C.3    50  ILE50       0.1596
     78  C          9.1090   17.3670    6.1320 C.2    50  ILE50       0.2287
     79  O          9.5860   17.7590    7.1970 O.2    50  ILE50      -0.2864
     80  CB        10.8450   18.0130    4.5110 C.3    50  ILE50       0.0276
     81  CG1       11.0510   18.6190    3.0850 C.3    50  ILE50       0.0022
     82  CG2       11.3650   16.6220    4.8010 C.3    50  ILE50       0.0022
     83  CD1       11.5310   17.6680    2.0010 C.3    50  ILE50       0.0001
     84  N         14.2970   20.8610   14.9810 N.3    81  PRO81      -0.2102
     85  CA        15.5890   20.1480   15.0840 C.3    81  PRO81       0.1504
     86  C         16.8140   21.1030   15.1060 C.2    81  PRO81       0.2575
     87  O         17.8620   20.7650   15.6930 O.2    81  PRO81      -0.2718
     88  CB        15.6110   19.2790   13.7960 C.3    81  PRO81       0.0282
     89  CG        14.7280   20.0940   12.8230 C.3    81  PRO81       0.0208
     90  CD        13.6070   20.4890   13.7270 C.3    81  PRO81       0.0893
     91  N         16.7000   22.2880   14.4680 N.am   82  VAL82      -0.1980
     92  CA        17.8360   23.2370   14.4250 C.3    82  VAL82       0.1595
     93  C         17.1900   24.6280   14.4590 C.2    82  VAL82       0.2287
     94  O         15.9950   24.7500   14.1540 O.2    82  VAL82      -0.2864
     95  CB        18.6980   22.9920   13.0980 C.3    82  VAL82       0.0276
     96  CG1       17.8670   22.8800   11.9200 C.3    82  VAL82       0.0022
     97  CG2       19.5860   24.0950   12.8410 C.3    82  VAL82       0.0022
     98  N         16.3970   28.0880   13.1220 N.3    84  ILE84      -0.1245
     99  CA        16.3620   28.5320   11.7450 C.3    84  ILE84       0.1561
    100  C         15.9730   30.0310   11.7130 C.2    84  ILE84       0.2260
    101  O         14.9800   30.4130   12.3230 O.2    84  ILE84      -0.2867
    102  CB        15.2580   27.7030   11.0160 C.3    84  ILE84       0.0252
    103  CG1       15.7380   26.2630   10.8000 C.3    84  ILE84       0.0019
    104  CG2       14.7460   28.4090    9.7060 C.3    84  ILE84       0.0019
    105  CD1       14.6670   25.4120   10.4890 C.3    84  ILE84       0.0001
@<TRIPOS>BOND
     1    83    81    1
     2    29    28    1
     3    29    30    1
     4    31    30    2
     5    43    42   ar
     6    30    32   am
     7    81    80    1
     8    44    42   ar
     9    42    41    1
    10    32    33    1
    11    80    82    1
    12    80    77    1
    13    26    25   ar
    14    22    23    2
    15    22    21    1
    16    77    76    1
    17    77    78    1
    18    76    74   am
    19    41    38    1
    20    37    34   am
    21    37    38    1
    22    33    34    1
    23    33    36    1
    24    34    35    2
    25    38    39    1
    26    74    75    2
    27    74    73    1
    28    21    20    1
    29    21    24    1
    30     1     2    1
    31    25    27   ar
    32    25    24    1
    33    73    72    1
    34    78    79    2
    35     2     3    1
    36     2     5    1
    37    71    70    2
    38     3     4    2
    39    39    40    2
    40    39    45   am
    41    72    70   am
    42     6     5    1
    43     6     7    1
    44    70    69    1
    45     8     7    1
    46     8     9    2
    47    45    46    1
    48    69    68    1
    49    11     9    1
    50    18    17    1
    51    19    17    1
    52    17    16    1
    53     9    10    1
    54    68    62   am
    55    52    50   ar
    56    51    50   ar
    57    46    47    1
    58    46    49    1
    59    50    49    1
    60    14    15    2
    61    14    13    1
    62    48    47    2
    63   104   102    1
    64    16    13    1
    65    62    61    1
    66    62    63    2
    67    13    12    1
    68   105   103    1
    69    61    64    1
    70    61    60    1
    71    64    66    1
    72    64    65    1
    73   103   102    1
    74   102    99    1
    75   100    99    1
    76   100   101    2
    77    99    98    1
    78    65    67    1
    79    96    95    1
    80    58    57    1
    81    89    90    1
    82    89    88    1
    83    97    95    1
    84    95    92    1
    85    53    54    1
    86    57    54    1
    87    57    59    1
    88    90    84    1
    89    88    85    1
    90    94    93    2
    91    54    55    1
    92    92    93    1
    93    92    91    1
    94    91    86   am
    95    56    55    2
    96    84    85    1
    97    85    86    1
    98    86    87    2
