@<TRIPOS>MOLECULE
tmp/1ak0A00.pdb
 98 93 0 0 0
SMALL
GASTEIGER

@<TRIPOS>ATOM
      1  N         11.1550   32.1950   -0.2060 N.3    47  TYR47      -0.1241
      2  CA        11.8810   32.7190   -1.3410 C.3    47  TYR47       0.1605
      3  C         12.6440   31.6500   -2.0990 C.2    47  TYR47       0.2264
      4  O         12.6550   31.6550   -3.3310 O.2    47  TYR47      -0.2867
      5  CB        12.8370   33.8050   -0.8720 C.3    47  TYR47       0.0534
      6  CG        13.7180   34.4210   -1.9340 C.ar   47  TYR47      -0.0201
      7  CD1       13.1830   35.2250   -2.9400 C.ar   47  TYR47      -0.0009
      8  CD2       15.0930   34.2650   -1.8800 C.ar   47  TYR47      -0.0009
      9  CE1       14.0060   35.8590   -3.8690 C.ar   47  TYR47       0.0417
     10  CE2       15.9250   34.8930   -2.7920 C.ar   47  TYR47       0.0417
     11  CZ        15.3720   35.6910   -3.7840 C.ar   47  TYR47       0.1957
     12  OH        16.2130   36.3000   -4.6950 O.3    47  TYR47      -0.2866
     13  N         13.2030   32.6470   -8.8700 N.3    52  ALA52      -0.1245
     14  CA        14.0390   33.8010   -8.5690 C.3    52  ALA52       0.1562
     15  C         14.9510   33.5160   -7.3680 C.2    52  ALA52       0.2260
     16  O         16.1170   33.9360   -7.3470 O.2    52  ALA52      -0.2867
     17  CB        13.1660   35.0150   -8.2840 C.3    52  ALA52       0.0290
     18  N         18.7070   30.1480   -6.1920 N.3    55  TRP55      -0.1241
     19  CA        20.1400   30.3310   -5.9910 C.3    55  TRP55       0.1605
     20  C         20.5470   30.4080   -4.5130 C.2    55  TRP55       0.2264
     21  O         21.6830   30.0790   -4.1670 O.2    55  TRP55      -0.2867
     22  CB        20.6010   31.6220   -6.6870 C.3    55  TRP55       0.0550
     23  CG        20.0800   32.8750   -6.0360 C.ar   55  TRP55       0.0003
     24  CD1       18.8790   33.4760   -6.2610 C.ar   55  TRP55       0.0946
     25  CD2       20.7170   33.6310   -4.9910 C.ar   55  TRP55       0.0152
     26  NE1       18.7210   34.5500   -5.4130 N.ar   55  TRP55      -0.2442
     27  CE2       19.8310   34.6600   -4.6240 C.ar   55  TRP55       0.0810
     28  CE3       21.9490   33.5230   -4.3280 C.ar   55  TRP55       0.0012
     29  CZ2       20.1390   35.5830   -3.6100 C.ar   55  TRP55       0.0191
     30  CZ3       22.2540   34.4430   -3.3220 C.ar   55  TRP55       0.0001
     31  CH2       21.3480   35.4550   -2.9740 C.ar   55  TRP55       0.0015
     32  N         22.6440   28.9900    1.1620 N.3    59  LEU59      -0.1245
     33  CA        22.9890   29.9420    2.2220 C.3    59  LEU59       0.1561
     34  C         22.4400   29.5530    3.5810 C.2    59  LEU59       0.2260
     35  O         22.8430   30.1100    4.5960 O.2    59  LEU59      -0.2867
     36  CB        22.4520   31.3410    1.8790 C.3    59  LEU59       0.0270
     37  CG        23.0000   32.0160    0.6160 C.3    59  LEU59       0.0019
     38  CD1       22.2560   33.3090    0.3880 C.3    59  LEU59       0.0001
     39  CD2       24.5050   32.2420    0.7330 C.3    59  LEU59       0.0001
     40  N         29.2120   32.9810    4.9620 N.3    88  SER88      -0.1202
     41  CA        29.4600   34.0220    3.9800 C.3    88  SER88       0.2020
     42  C         28.2060   34.8720    3.8170 C.2    88  SER88       0.2618
     43  O         28.2840   36.0680    3.5700 O.2    88  SER88      -0.2717
     44  CB        29.9150   33.4060    2.6470 C.3    88  SER88       0.2103
     45  OG        28.8590   32.7030    2.0100 O.3    88  SER88      -0.2182
     46  N         27.0390   34.2770    3.9930 N.am   89  ALA89      -0.1979
     47  CA        25.8230   35.0620    3.8710 C.3    89  ALA89       0.1597
     48  C         25.6920   36.0670    5.0220 C.2    89  ALA89       0.2287
     49  O         25.1150   37.1350    4.8360 O.2    89  ALA89      -0.2864
     50  CB        24.5750   34.1650    3.8010 C.3    89  ALA89       0.0319
     51  N         27.9120   38.9510    4.0130 N.3    92  ASN92      -0.1225
     52  CA        27.3220   39.6990    2.9050 C.3    92  ASN92       0.1785
     53  C         26.2300   40.6530    3.3660 C.2    92  ASN92       0.2597
     54  O         26.3010   41.8510    3.1230 O.2    92  ASN92      -0.2718
     55  CB        26.7460   38.7340    1.8230 C.3    92  ASN92       0.1169
     56  CG        26.1910   39.4770    0.5490 C.2    92  ASN92       0.2627
     57  OD1       26.5420   40.6380    0.3120 O.2    92  ASN92      -0.2716
     58  ND2       25.3360   38.7850   -0.2330 N.am   92  ASN92      -0.0877
     59  N         25.2240   40.1310    4.0490 N.am   93  TYR93      -0.1976
     60  CA        24.1270   40.9620    4.4640 C.3    93  TYR93       0.1639
     61  C         24.3290   41.8830    5.6670 C.2    93  TYR93       0.2290
     62  O         23.5570   42.8190    5.8520 O.2    93  TYR93      -0.2864
     63  CB        22.8840   40.1140    4.6400 C.3    93  TYR93       0.0560
     64  CG        22.5240   39.3600    3.3910 C.ar   93  TYR93      -0.0198
     65  CD1       22.0180   40.0220    2.2760 C.ar   93  TYR93      -0.0009
     66  CD2       22.6740   37.9770    3.3280 C.ar   93  TYR93      -0.0009
     67  CE1       21.6640   39.3150    1.1250 C.ar   93  TYR93       0.0417
     68  CE2       22.3290   37.2630    2.1860 C.ar   93  TYR93       0.0417
     69  CZ        21.8230   37.9350    1.0890 C.ar   93  TYR93       0.1957
     70  OH        21.4730   37.2130   -0.0300 O.3    93  TYR93      -0.2866
     71  N         25.4650   44.7630    3.8360 N.3    96  ARG96      -0.1245
     72  CA        24.4490   45.3790    3.0000 C.3    96  ARG96       0.1563
     73  C         23.3200   46.1650    3.6860 C.2    96  ARG96       0.2260
     74  O         22.7480   47.0910    3.0970 O.2    96  ARG96      -0.2867
     75  CB        23.8580   44.3480    2.0400 C.3    96  ARG96       0.0307
     76  CG        24.8430   43.8620    0.9690 C.3    96  ARG96       0.0489
     77  CD        24.2190   42.7930    0.0680 C.3    96  ARG96       0.2205
     78  NE        22.9580   43.2120   -0.5620 N.pl3  96  ARG96      -0.0865
     79  CZ        22.8660   43.7330   -1.7850 C.cat  96  ARG96       0.5346
     80  NH1       23.9520   43.9120   -2.5110 N.pl3  96  ARG96       0.1354
     81  NH2       21.6900   44.0830   -2.2780 N.pl3  96  ARG96       0.1354
     82  N         16.7080   46.9710   -0.5990 N.3   106  ASN106     -0.1240
     83  CA        17.8870   46.1170   -0.6060 C.3   106  ASN106      0.1653
     84  C         18.1630   45.9010    0.9030 C.2   106  ASN106      0.2266
     85  O         18.5880   44.8240    1.3620 O.2   106  ASN106     -0.2867
     86  CB        19.1500   46.7990   -1.1630 C.3   106  ASN106      0.1155
     87  CG        19.2540   46.7630   -2.6480 C.2   106  ASN106      0.2627
     88  OD1       19.8130   47.6780   -3.2600 O.2   106  ASN106     -0.2716
     89  ND2       18.6850   45.7360   -3.2530 N.am  106  ASN106     -0.0877
     90  N         15.6180   43.4720    2.3800 N.3   109  GLU109     -0.1245
     91  CA        15.9700   42.1100    2.0440 C.3   109  GLU109      0.1567
     92  C         17.0960   41.6120    2.9600 C.2   109  GLU109      0.2260
     93  O         17.0130   40.5160    3.5130 O.2   109  GLU109     -0.2867
     94  CB        16.3970   42.0050    0.5820 C.3   109  GLU109      0.0388
     95  CG        16.9240   40.6310    0.2230 C.3   109  GLU109      0.1160
     96  CD        17.5750   40.5860   -1.1380 C.2   109  GLU109      0.3649
     97  OE1       18.7020   41.1060   -1.2830 O.co2 109  GLU109     -0.2457
     98  OE2       16.9580   40.0040   -2.0540 O.co2 109  GLU109     -0.2457
@<TRIPOS>BOND
     1    13    14    1
     2    14    17    1
     3    14    15    1
     4    15    16    2
     5    22    23    1
     6    22    19    1
     7    24    23   ar
     8    24    26   ar
     9    18    19    1
    10    23    25   ar
    11    19    20    1
    12    26    27   ar
    13    25    27   ar
    14    25    28   ar
    15    12    11    1
    16    27    29   ar
    17    20    21    2
    18    28    30   ar
    19     9    11   ar
    20     9     7   ar
    21    11    10   ar
    22    29    31   ar
    23     4     3    2
    24    30    31   ar
    25    88    87    2
    26    89    87   am
    27     7     6   ar
    28    10     8   ar
    29    87    86    1
    30    80    79    1
    31    81    79    1
    32     3     2    1
    33    98    96   ar
    34     6     8   ar
    35     6     5    1
    36    79    78    2
    37     2     5    1
    38     2     1    1
    39    97    96   ar
    40    86    83    1
    41    96    95    1
    42    83    82    1
    43    83    84    1
    44    78    77    1
    45    58    56   am
    46    70    69    1
    47    77    76    1
    48    95    94    1
    49    57    56    2
    50    38    37    1
    51    56    55    1
    52    94    91    1
    53    37    39    1
    54    37    36    1
    55    84    85    2
    56    76    75    1
    57    69    67   ar
    58    69    68   ar
    59    67    65   ar
    60    32    33    1
    61    55    52    1
    62    36    33    1
    63    45    44    1
    64    75    72    1
    65    91    90    1
    66    91    92    1
    67    68    66   ar
    68    33    34    1
    69    65    64   ar
    70    44    41    1
    71    52    53    1
    72    52    51    1
    73    92    93    2
    74    72    73    1
    75    72    71    1
    76    74    73    2
    77    54    53    2
    78    66    64   ar
    79    53    59   am
    80    64    63    1
    81    43    42    2
    82    34    35    2
    83    50    47    1
    84    42    41    1
    85    42    46   am
    86    47    46    1
    87    47    48    1
    88    41    40    1
    89    59    60    1
    90    60    63    1
    91    60    61    1
    92    49    48    2
    93    61    62    2
