@<TRIPOS>MOLECULE
tmp/1ak0A03.pdb
 157 150 0 0 0
SMALL
GASTEIGER

@<TRIPOS>ATOM
      1  N         15.6260   25.3060   11.3760 N.3     1  TRP1       -0.1241
      2  CA        14.2920   25.2630   12.0550 C.3     1  TRP1        0.1605
      3  C         13.1880   25.5240   11.0510 C.2     1  TRP1        0.2264
      4  O         13.4630   26.0750    9.9300 O.2     1  TRP1       -0.2867
      5  CB        14.2230   26.3400   13.1380 C.3     1  TRP1        0.0550
      6  CG        15.4190   26.3400   14.0270 C.ar    1  TRP1        0.0003
      7  CD1       16.4130   27.2620   14.0600 C.ar    1  TRP1        0.0946
      8  CD2       15.7470   25.3540   15.0140 C.ar    1  TRP1        0.0152
      9  NE1       17.3470   26.9150   14.9960 N.ar    1  TRP1       -0.2442
     10  CE2       16.9640   25.7490   15.5980 C.ar    1  TRP1        0.0810
     11  CE3       15.1310   24.1720   15.4450 C.ar    1  TRP1        0.0012
     12  CZ2       17.5830   25.0020   16.6140 C.ar    1  TRP1        0.0191
     13  CZ3       15.7500   23.4230   16.4490 C.ar    1  TRP1        0.0001
     14  CH2       16.9640   23.8410   17.0190 C.ar    1  TRP1        0.0015
     15  N         13.2700   30.7200   -1.3920 N.3    48  ARG48      -0.1231
     16  CA        14.0380   29.7010   -2.0910 C.3    48  ARG48       0.1694
     17  C         13.1290   28.7450   -2.8680 C.2    48  ARG48       0.2591
     18  O         13.5810   28.0030   -3.7250 O.2    48  ARG48      -0.2718
     19  CB        14.9580   28.9470   -1.1360 C.3    48  ARG48       0.0321
     20  CG        14.2300   27.9870   -0.2660 C.3    48  ARG48       0.0489
     21  CD        15.1490   27.0490    0.4950 C.3    48  ARG48       0.2205
     22  NE        14.3140   26.3110    1.4360 N.pl3  48  ARG48      -0.0865
     23  CZ        14.6950   25.9160    2.6410 C.cat  48  ARG48       0.5346
     24  NH1       15.9240   26.1510    3.0810 N.pl3  48  ARG48       0.1354
     25  NH2       13.7940   25.3890    3.4440 N.pl3  48  ARG48       0.1354
     26  N         11.8330   28.8000   -2.6050 N.am   49  LEU49      -0.1980
     27  CA        10.8970   27.9510   -3.3300 C.3    49  LEU49       0.1596
     28  C         10.5030   28.5620   -4.6840 C.2    49  LEU49       0.2287
     29  O          9.6610   28.0050   -5.3950 O.2    49  LEU49      -0.2864
     30  CB         9.6490   27.7160   -2.4900 C.3    49  LEU49       0.0297
     31  CG         9.4910   26.3490   -1.8230 C.3    49  LEU49       0.0022
     32  CD1       10.8320   25.7380   -1.4950 C.3    49  LEU49       0.0001
     33  CD2        8.6340   26.5140   -0.5890 C.3    49  LEU49       0.0001
     34  N         15.8460   30.2570   -6.0260 N.3    54  LYS54      -0.1245
     35  CA        16.5870   28.9880   -5.9790 C.3    54  LYS54       0.1561
     36  C         18.0740   29.0960   -5.6930 C.2    54  LYS54       0.2260
     37  O         18.6490   28.2270   -5.0500 O.2    54  LYS54      -0.2867
     38  CB        16.3960   28.1860   -7.2760 C.3    54  LYS54       0.0271
     39  CG        14.9850   27.6980   -7.5150 C.3    54  LYS54       0.0035
     40  CD        14.6590   26.4400   -6.7350 C.3    54  LYS54       0.0206
     41  CE        13.1490   26.3670   -6.5250 C.3    54  LYS54       0.1093
     42  NZ        12.5760   25.0250   -6.7740 N.3    54  LYS54      -0.1314
     43  N         19.4000   28.7080   -1.8490 N.3    57  ALA57      -0.1245
     44  CA        19.2490   27.5120   -1.0290 C.3    57  ALA57       0.1562
     45  C         20.4930   27.1710   -0.2230 C.2    57  ALA57       0.2260
     46  O         20.3850   26.8660    0.9560 O.2    57  ALA57      -0.2867
     47  CB        18.8100   26.3150   -1.8730 C.3    57  ALA57       0.0290
     48  N         21.4930   28.6310    3.5990 N.3    60  HIS60      -0.1226
     49  CA        20.8770   28.2290    4.8490 C.3    60  HIS60       0.1752
     50  C         21.7110   27.3040    5.7280 C.2    60  HIS60       0.2596
     51  O         21.3170   27.0340    6.8700 O.2    60  HIS60      -0.2718
     52  CB        19.5240   27.5970    4.5600 C.3    60  HIS60       0.0759
     53  CG        18.5920   28.5020    3.8190 C.ar   60  HIS60       0.0818
     54  ND1       17.3600   28.8760    4.3090 N.ar   60  HIS60      -0.2268
     55  CD2       18.7080   29.1030    2.6100 C.ar   60  HIS60       0.1154
     56  CE1       16.7520   29.6590    3.4370 C.ar   60  HIS60       0.1986
     57  NE2       17.5520   29.8140    2.3960 N.ar   60  HIS60      -0.2212
     58  N         22.8690   26.8630    5.2570 N.am   61  PHE61      -0.1976
     59  CA        23.6530   25.9240    6.0510 C.3    61  PHE61       0.1639
     60  C         25.1110   25.9190    5.6940 C.2    61  PHE61       0.2290
     61  O         25.5420   26.6840    4.8280 O.2    61  PHE61      -0.2864
     62  CB        23.0980   24.5020    5.8330 C.3    61  PHE61       0.0560
     63  CG        22.9460   24.1200    4.3760 C.ar   61  PHE61      -0.0200
     64  CD1       24.0620   23.7750    3.6080 C.ar   61  PHE61      -0.0042
     65  CD2       21.7000   24.1930    3.7550 C.ar   61  PHE61      -0.0042
     66  CE1       23.9340   23.5050    2.2410 C.ar   61  PHE61      -0.0003
     67  CE2       21.5610   23.9210    2.3790 C.ar   61  PHE61      -0.0003
     68  CZ        22.6820   23.5880    1.6270 C.ar   61  PHE61      -0.0000
     69  N         27.9420   22.8110    5.2100 N.3    63  ASP63      -0.1239
     70  CA        28.2140   21.3720    5.2570 C.3    63  ASP63       0.1674
     71  C         29.5880   21.0460    5.8150 C.2    63  ASP63       0.2266
     72  O         30.5220   20.7660    5.0580 O.2    63  ASP63      -0.2867
     73  CB        28.0370   20.7330    3.8700 C.3    63  ASP63       0.1410
     74  CG        26.5920   20.7430    3.4110 C.2    63  ASP63       0.3668
     75  OD1       25.6850   20.3640    4.2020 O.co2  63  ASP63      -0.2456
     76  OD2       26.3470   21.1560    2.2560 O.co2  63  ASP63      -0.2456
     77  N         22.1210   20.3120   12.7240 N.3   125  LEU125     -0.1231
     78  CA        22.1700   19.6320   11.4380 C.3   125  LEU125      0.1693
     79  C         22.3610   20.6180   10.2710 C.2   125  LEU125      0.2592
     80  O         22.5780   20.2050    9.1340 O.2   125  LEU125     -0.2718
     81  CB        20.9620   18.7230   11.2470 C.3   125  LEU125      0.0284
     82  CG        21.0600   17.4850   12.1480 C.3   125  LEU125      0.0019
     83  CD1       19.7680   16.7120   12.0090 C.3   125  LEU125      0.0001
     84  CD2       22.2640   16.6060   11.7940 C.3   125  LEU125      0.0001
     85  N         22.2840   21.9150   10.5630 N.am  126  HIS126     -0.1976
     86  CA        22.5490   22.9610    9.5620 C.3   126  HIS126      0.1656
     87  C         24.0330   23.2980    9.5070 C.2   126  HIS126      0.2291
     88  O         24.4440   24.1800    8.7540 O.2   126  HIS126     -0.2864
     89  CB        21.7690   24.2400    9.8710 C.3   126  HIS126      0.0771
     90  CG        20.3970   24.2460    9.2890 C.ar  126  HIS126      0.0820
     91  ND1       20.0350   25.0930    8.2690 N.ar  126  HIS126     -0.2267
     92  CD2       19.3120   23.4730    9.5460 C.ar  126  HIS126      0.1154
     93  CE1       18.7840   24.8430    7.9110 C.ar  126  HIS126      0.1986
     94  NE2       18.3280   23.8660    8.6730 N.ar  126  HIS126     -0.2212
     95  N         26.4260   20.6010    9.4120 N.3   128  GLU128     -0.1245
     96  CA        26.9870   19.2720    9.2700 C.3   128  GLU128      0.1567
     97  C         26.6600   18.6590    7.8970 C.2   128  GLU128      0.2260
     98  O         25.5220   18.6970    7.4410 O.2   128  GLU128     -0.2867
     99  CB        26.4270   18.3980   10.4100 C.3   128  GLU128      0.0388
    100  CG        26.7420   16.9280   10.3170 C.3   128  GLU128      0.1160
    101  CD        28.2330   16.6630   10.2260 C.2   128  GLU128      0.3649
    102  OE1       29.0120   17.2700   10.9960 O.co2 128  GLU128     -0.2457
    103  OE2       28.6340   15.8430    9.3750 O.co2 128  GLU128     -0.2457
    104  N         23.5440   14.3760    4.1160 N.3   132  VAL132     -0.1231
    105  CA        22.8810   15.5910    3.6300 C.3   132  VAL132      0.1692
    106  C         22.2070   16.3050    4.8290 C.2   132  VAL132      0.2592
    107  O         20.9800   16.4760    4.8790 O.2   132  VAL132     -0.2718
    108  CB        21.8400   15.2790    2.5300 C.3   132  VAL132      0.0266
    109  CG1       21.3450   16.5570    1.9010 C.3   132  VAL132      0.0020
    110  CG2       22.4510   14.3850    1.4710 C.3   132  VAL132      0.0020
    111  N         23.0210   16.6890    5.8110 N.am  133  GLY133     -0.1957
    112  CA        22.4920   17.3690    6.9880 C.3   133  GLY133      0.1869
    113  C         21.4480   16.5500    7.7360 C.2   133  GLY133      0.2309
    114  O         20.5180   17.1100    8.3190 O.2   133  GLY133     -0.2863
    115  N         19.1590   14.6870    6.4040 N.3   135  ASN135     -0.1225
    116  CA        17.9360   14.4290    5.6260 C.3   135  ASN135      0.1785
    117  C         17.8120   12.9730    5.1720 C.2   135  ASN135      0.2597
    118  O         16.7050   12.4610    5.0280 O.2   135  ASN135     -0.2718
    119  CB        17.8320   15.3480    4.4100 C.3   135  ASN135      0.1169
    120  CG        17.2850   16.7010    4.7670 C.2   135  ASN135      0.2627
    121  OD1       16.1090   16.8340    5.1090 O.2   135  ASN135     -0.2716
    122  ND2       18.1380   17.7180    4.7260 N.am  135  ASN135     -0.0877
    123  N         18.9450   12.3110    4.9570 N.am  136  LYS136     -0.1980
    124  CA        18.9250   10.9200    4.5200 C.3   136  LYS136      0.1596
    125  C         18.7870    9.8960    5.6470 C.2   136  LYS136      0.2287
    126  O         18.7700    8.6890    5.3880 O.2   136  LYS136     -0.2864
    127  CB        20.1600   10.5880    3.7060 C.3   136  LYS136      0.0298
    128  CG        20.1560   11.0690    2.2940 C.3   136  LYS136      0.0038
    129  CD        21.3020   10.3700    1.5870 C.3   136  LYS136      0.0206
    130  CE        21.7320   11.1320    0.3700 C.3   136  LYS136      0.1093
    131  NZ        22.8330   10.4680   -0.3900 N.3   136  LYS136     -0.1314
    132  N         12.5060   12.0090    8.9380 N.3   147  ASN147     -0.1240
    133  CA        13.9450   11.9040    8.7700 C.3   147  ASN147      0.1653
    134  C         14.5170   12.7380    9.9240 C.2   147  ASN147      0.2266
    135  O         13.8150   13.6060   10.4650 O.2   147  ASN147     -0.2867
    136  CB        14.4280   12.3730    7.3920 C.3   147  ASN147      0.1155
    137  CG        14.2510   13.8640    7.1610 C.2   147  ASN147      0.2627
    138  OD1       14.8720   14.6890    7.8150 O.2   147  ASN147     -0.2716
    139  ND2       13.4080   14.2110    6.2100 N.am  147  ASN147     -0.0877
    140  N         16.5340   15.2270   10.1580 N.3   149  HIS149     -0.1241
    141  CA        16.4900   16.6590    9.9440 C.3   149  HIS149      0.1621
    142  C         15.1540   17.3100   10.2260 C.2   149  HIS149      0.2264
    143  O         15.0890   18.3490   10.9000 O.2   149  HIS149     -0.2867
    144  CB        16.9230   16.9910    8.5220 C.3   149  HIS149      0.0745
    145  CG        17.2590   18.4400    8.3360 C.ar  149  HIS149      0.0817
    146  ND1       18.5530   18.8910    8.3260 N.ar  149  HIS149     -0.2268
    147  CD2       16.4810   19.5400    8.2760 C.ar  149  HIS149      0.1154
    148  CE1       18.5750   20.2000    8.2850 C.ar  149  HIS149      0.1986
    149  NE2       17.3140   20.6260    8.2550 N.ar  149  HIS149     -0.2212
    150  N         14.1300   20.1850   12.9350 N.3   153  ASP153     -0.1239
    151  CA        13.5850   21.4590   12.4420 C.3   153  ASP153      0.1674
    152  C         12.1700   21.7270   12.9170 C.2   153  ASP153      0.2266
    153  O         11.8390   22.8300   13.3920 O.2   153  ASP153     -0.2867
    154  CB        13.4760   21.4500   10.9020 C.3   153  ASP153      0.1410
    155  CG        14.6410   22.1300   10.1940 C.2   153  ASP153      0.3668
    156  OD1       15.5910   22.5720   10.8580 O.co2 153  ASP153     -0.2456
    157  OD2       14.6180   22.1940    8.9380 O.co2 153  ASP153     -0.2456
@<TRIPOS>BOND
     1    39    38    1
     2    39    40    1
     3    38    35    1
     4    42    41    1
     5    40    41    1
     6    34    35    1
     7    35    36    1
     8    36    37    2
     9    29    28    2
    10    28    27    1
    11    18    17    2
    12    27    26    1
    13    27    30    1
    14    17    26   am
    15    17    16    1
    16    30    31    1
    17    16    15    1
    18    16    19    1
    19    47    44    1
    20    43    44    1
    21    31    32    1
    22    31    33    1
    23    19    20    1
    24    44    45    1
    25   131   130    1
    26    20    21    1
    27    45    46    2
    28   130   129    1
    29    21    22    1
    30    22    23    2
    31   110   108    1
    32   129   128    1
    33    68    66   ar
    34    68    67   ar
    35   109   108    1
    36    66    64   ar
    37    76    74   ar
    38   128   127    1
    39    67    65   ar
    40    57    55   ar
    41    57    56   ar
    42   108   105    1
    43    55    53   ar
    44    23    24    1
    45    23    25    1
    46    74    73    1
    47    74    75   ar
    48    56    54   ar
    49    48    49    1
    50    64    63   ar
    51   105   104    1
    52   105   106    1
    53   127   124    1
    54    65    63   ar
    55    53    54   ar
    56    53    52    1
    57    73    70    1
    58    63    62    1
    59   119   120    1
    60   119   116    1
    61   124   123    1
    62   124   125    1
    63    52    49    1
    64   122   120   am
    65   120   121    2
    66    61    60    2
    67   106   107    2
    68   106   111   am
    69    49    50    1
    70   123   117   am
    71   118   117    2
    72    72    71    2
    73   117   116    1
    74    69    70    1
    75    70    71    1
    76    58    50   am
    77    58    59    1
    78   126   125    2
    79   116   115    1
    80    60    59    1
    81    50    51    2
    82   111   112    1
    83    62    59    1
    84   139   137   am
    85   112   113    1
    86   137   136    1
    87   137   138    2
    88   136   133    1
    89    98    97    2
    90   113   114    2
    91    97    96    1
    92    93    91   ar
    93    93    94   ar
    94   149   147   ar
    95   149   148   ar
    96    91    90   ar
    97   147   145   ar
    98   148   146   ar
    99   146   145   ar
   100   145   144    1
   101   144   141    1
   102    94    92   ar
   103    88    87    2
   104   133   132    1
   105   133   134    1
   106   157   155   ar
   107    80    79    2
   108    96    95    1
   109    96    99    1
   110    90    92   ar
   111    90    89    1
   112   103   101   ar
   113    87    86    1
   114    86    89    1
   115    86    85    1
   116   134   135    2
   117     4     3    2
   118   141   140    1
   119   141   142    1
   120   155   156   ar
   121   155   154    1
   122   101   100    1
   123   101   102   ar
   124   142   143    2
   125    79    85   am
   126    79    78    1
   127   100    99    1
   128   154   151    1
   129     3     2    1
   130    81    78    1
   131    81    82    1
   132     1     2    1
   133    78    77    1
   134    84    82    1
   135    83    82    1
   136     2     5    1
   137   151   152    1
   138   151   150    1
   139   152   153    2
   140     5     6    1
   141     6     7   ar
   142     6     8   ar
   143     7     9   ar
   144     9    10   ar
   145     8    11   ar
   146     8    10   ar
   147    11    13   ar
   148    10    12   ar
   149    13    14   ar
   150    12    14   ar
