@<TRIPOS>MOLECULE
tmp/1akcA00.pdb
 185 177 0 0 0
SMALL
GASTEIGER

@<TRIPOS>ATOM
      1  N         53.6380   17.0780   36.9260 N.3    15  ILE15      -0.1231
      2  CA        53.4950   15.7780   37.5300 C.3    15  ILE15       0.1692
      3  C         53.3070   14.7130   36.4590 C.2    15  ILE15       0.2591
      4  O         54.1170   13.7780   36.3460 O.2    15  ILE15      -0.2718
      5  CB        52.3320   15.7390   38.5770 C.3    15  ILE15       0.0266
      6  CG1       52.5410   16.8780   39.6020 C.3    15  ILE15       0.0019
      7  CG2       52.2580   14.3300   39.2490 C.3    15  ILE15       0.0020
      8  CD1       51.4140   17.0280   40.6530 C.3    15  ILE15       0.0001
      9  N         52.2620   14.8900   35.6530 N.am   16  LEU16      -0.1980
     10  CA        51.9560   13.8710   34.6110 C.3    16  LEU16       0.1596
     11  C         53.0580   13.7250   33.5820 C.2    16  LEU16       0.2287
     12  O         53.2750   12.6170   33.0160 O.2    16  LEU16      -0.2864
     13  CB        50.5350   14.1320   34.1270 C.3    16  LEU16       0.0297
     14  CG        49.4000   13.2400   34.5610 C.3    16  LEU16       0.0022
     15  CD1       49.5830   12.7170   35.9680 C.3    16  LEU16       0.0001
     16  CD2       48.0880   14.0220   34.5310 C.3    16  LEU16       0.0001
     17  N         54.1630   10.2430   39.7810 N.3    35  VAL35      -0.1231
     18  CA        52.7380   10.2910   40.1670 C.3    35  VAL35       0.1692
     19  C         52.5070    9.3040   41.2990 C.2    35  VAL35       0.2592
     20  O         53.2410    8.3290   41.3620 O.2    35  VAL35      -0.2718
     21  CB        51.7540   10.2060   38.9960 C.3    35  VAL35       0.0266
     22  CG1       52.4300   10.1920   37.6430 C.3    35  VAL35       0.0020
     23  CG2       50.6920    9.1180   39.1050 C.3    35  VAL35       0.0020
     24  N         51.5010    9.6130   42.0970 N.am   36  GLY36      -0.1957
     25  CA        51.2040    8.7340   43.2460 C.3    36  GLY36       0.1869
     26  C         50.4390    7.5250   42.7500 C.2    36  GLY36       0.2309
     27  O         49.2030    7.6310   42.7730 O.2    36  GLY36      -0.2863
     28  N         36.4220   11.5200   38.5590 N.3   104  SER104     -0.1202
     29  CA        37.5110   11.3770   39.5200 C.3   104  SER104      0.2020
     30  C         37.6150   12.6660   40.3640 C.2   104  SER104      0.2619
     31  O         36.7580   13.5590   40.4420 O.2   104  SER104     -0.2717
     32  CB        38.8160   10.9730   38.8820 C.3   104  SER104      0.2103
     33  OG        39.5190   10.0480   39.6920 O.3   104  SER104     -0.2182
     34  N         38.7280   12.7690   41.0720 N.am  105  GLY105     -0.1942
     35  CA        38.9730   13.8850   41.9930 C.3   105  GLY105      0.2014
     36  C         39.0110   15.1790   41.2070 C.2   105  GLY105      0.2639
     37  O         38.2230   16.0930   41.5160 O.2   105  GLY105     -0.2714
     38  N         39.8890   15.1470   40.2050 N.am  106  THR106     -0.1950
     39  CA        39.9980   16.3410   39.3510 C.3   106  THR106      0.1897
     40  C         38.6660   16.7880   38.7610 C.2   106  THR106      0.2313
     41  O         38.4190   18.0010   38.8070 O.2   106  THR106     -0.2863
     42  CB        41.0130   16.2060   38.1700 C.3   106  THR106      0.1794
     43  OG1       42.2090   15.6420   38.8040 O.3   106  THR106     -0.2208
     44  CG2       41.2130   17.5790   37.5120 C.3   106  THR106      0.0378
     45  N         36.4390   18.3110   41.6320 N.3   109  LEU109     -0.1245
     46  CA        37.0780   19.5620   42.0470 C.3   109  LEU109      0.1561
     47  C         36.7100   20.7210   41.1510 C.2   109  LEU109      0.2260
     48  O         36.3870   21.8880   41.5110 O.2   109  LEU109     -0.2867
     49  CB        38.5830   19.2020   41.9940 C.3   109  LEU109      0.0270
     50  CG        39.5520   19.5290   43.0970 C.3   109  LEU109      0.0019
     51  CD1       38.8660   19.5990   44.4570 C.3   109  LEU109      0.0001
     52  CD2       40.6330   18.4550   43.2280 C.3   109  LEU109      0.0001
     53  N         49.0510   20.6100   45.9780 N.3   133  TRP133     -0.1241
     54  CA        49.2220   19.7760   44.7560 C.3   133  TRP133      0.1605
     55  C         49.2840   20.8190   43.6450 C.2   133  TRP133      0.2264
     56  O         48.3330   21.6530   43.6010 O.2   133  TRP133     -0.2867
     57  CB        47.9800   18.9550   44.6130 C.3   133  TRP133      0.0550
     58  CG        47.8050   18.0890   43.4240 C.ar  133  TRP133      0.0003
     59  CD1       48.7310   17.3080   42.7930 C.ar  133  TRP133      0.0946
     60  CD2       46.5350   17.8710   42.7770 C.ar  133  TRP133      0.0152
     61  NE1       48.0980   16.6220   41.7790 N.ar  133  TRP133     -0.2442
     62  CE2       46.7610   16.9220   41.7610 C.ar  133  TRP133      0.0810
     63  CE3       45.2450   18.3620   42.9980 C.ar  133  TRP133      0.0012
     64  CZ2       45.7300   16.4910   40.9470 C.ar  133  TRP133      0.0191
     65  CZ3       44.2110   17.9480   42.1810 C.ar  133  TRP133      0.0001
     66  CH2       44.4630   17.0150   41.1740 C.ar  133  TRP133      0.0015
     67  N         45.9180   22.2970   41.8970 N.3   136  HIS136     -0.1241
     68  CA        44.8230   23.0580   42.5120 C.3   136  HIS136      0.1621
     69  C         44.7670   24.4530   41.8890 C.2   136  HIS136      0.2264
     70  O         43.6440   25.0020   41.7960 O.2   136  HIS136     -0.2867
     71  CB        44.8540   23.1560   44.0650 C.3   136  HIS136      0.0745
     72  CG        44.4370   21.9210   44.7860 C.ar  136  HIS136      0.0817
     73  ND1       45.1500   21.2750   45.7690 N.ar  136  HIS136     -0.2268
     74  CD2       43.3090   21.1720   44.6090 C.ar  136  HIS136      0.1154
     75  CE1       44.5010   20.1910   46.1730 C.ar  136  HIS136      0.1986
     76  NE2       43.3790   20.1040   45.4820 N.ar  136  HIS136     -0.2212
     77  N         43.0350   19.8090   52.6540 N.3   181  HIS181     -0.1241
     78  CA        43.1970   18.3970   52.2320 C.3   181  HIS181      0.1621
     79  C         42.6550   17.5930   53.4170 C.2   181  HIS181      0.2264
     80  O         43.1560   17.7910   54.5340 O.2   181  HIS181     -0.2867
     81  CB        44.6590   17.9950   52.0760 C.3   181  HIS181      0.0745
     82  CG        45.2940   18.7170   50.9280 C.ar  181  HIS181      0.0817
     83  ND1       46.1390   18.0950   50.0430 N.ar  181  HIS181     -0.2268
     84  CD2       45.2330   20.0220   50.5620 C.ar  181  HIS181      0.1154
     85  CE1       46.5690   19.0120   49.1850 C.ar  181  HIS181      0.1986
     86  NE2       46.0560   20.1840   49.4720 N.ar  181  HIS181     -0.2212
     87  N         49.0520   16.4900   50.2400 N.3   186  ASN186     -0.1240
     88  CA        49.8630   16.3510   49.0290 C.3   186  ASN186      0.1653
     89  C         50.4290   17.7410   48.6830 C.2   186  ASN186      0.2266
     90  O         49.6150   18.6350   48.4190 O.2   186  ASN186     -0.2867
     91  CB        49.0410   15.8440   47.8430 C.3   186  ASN186      0.1155
     92  CG        49.8850   15.6700   46.5980 C.2   186  ASN186      0.2627
     93  OD1       51.0940   15.9680   46.4860 O.2   186  ASN186     -0.2716
     94  ND2       49.2350   15.0830   45.5880 N.am  186  ASN186     -0.0877
     95  N         39.3910   18.5200   49.9200 N.3   214  ASP214     -0.1239
     96  CA        39.9100   17.6580   48.8300 C.3   214  ASP214      0.1674
     97  C         40.2760   16.3200   49.5020 C.2   214  ASP214      0.2266
     98  O         41.3070   16.2240   50.2090 O.2   214  ASP214     -0.2867
     99  CB        41.0540   18.3220   48.0660 C.3   214  ASP214      0.1410
    100  CG        41.5220   17.4370   46.9090 C.2   214  ASP214      0.3668
    101  OD1       40.8570   16.4290   46.5810 O.co2 214  ASP214     -0.2456
    102  OD2       42.5990   17.7710   46.3520 O.co2 214  ASP214     -0.2456
    103  N         41.2810   12.9210   48.4670 N.3   216  ALA216     -0.1231
    104  CA        41.8360   12.0130   47.4690 C.3   216  ALA216      0.1694
    105  C         42.4110   10.7380   48.0670 C.2   216  ALA216      0.2592
    106  O         42.4640    9.7590   47.2800 O.2   216  ALA216     -0.2718
    107  CB        42.9700   12.7180   46.6950 C.3   216  ALA216      0.0304
    108  N         42.8550   10.7770   49.3370 N.am  217  TYR217     -0.1976
    109  CA        43.4590    9.5520   49.8840 C.3   217  TYR217      0.1639
    110  C         42.7700    8.9240   51.0720 C.2   217  TYR217      0.2290
    111  O         43.5250    8.4490   51.9480 O.2   217  TYR217     -0.2864
    112  CB        44.9580    9.8620   50.2860 C.3   217  TYR217      0.0560
    113  CG        45.6720   10.4470   49.0980 C.ar  217  TYR217     -0.0198
    114  CD1       46.2240    9.6390   48.1180 C.ar  217  TYR217     -0.0009
    115  CD2       45.7220   11.8340   48.9220 C.ar  217  TYR217     -0.0009
    116  CE1       46.8450   10.1950   46.9910 C.ar  217  TYR217      0.0417
    117  CE2       46.3410   12.3990   47.8070 C.ar  217  TYR217      0.0417
    118  CZ        46.9110   11.5770   46.8490 C.ar  217  TYR217      0.1957
    119  OH        47.5260   12.1260   45.7660 O.3   217  TYR217     -0.2866
    120  N         37.9430   11.1260   45.3640 N.3   247  SER247     -0.1217
    121  CA        38.6090   10.3620   44.3370 C.3   247  SER247      0.1889
    122  C         38.7290    8.8960   44.8480 C.2   247  SER247      0.2288
    123  O         39.0100    8.6320   46.0350 O.2   247  SER247     -0.2866
    124  CB        40.0020   10.8100   43.9490 C.3   247  SER247      0.2089
    125  OG        40.6510    9.6870   43.2920 O.3   247  SER247     -0.2183
    126  N         40.6450    6.9270   42.9110 N.3   249  ALA249     -0.1231
    127  CA        41.7980    6.5190   42.0970 C.3   249  ALA249      0.1694
    128  C         42.8510    5.7630   42.8820 C.2   249  ALA249      0.2592
    129  O         43.3750    4.7390   42.3730 O.2   249  ALA249     -0.2718
    130  CB        42.3830    7.7620   41.4420 C.3   249  ALA249      0.0304
    131  N         43.1610    6.2110   44.0970 N.am  250  HIS250     -0.1976
    132  CA        44.2200    5.4660   44.8470 C.3   250  HIS250      0.1656
    133  C         43.7060    4.3750   45.7540 C.2   250  HIS250      0.2291
    134  O         44.1010    3.1840   45.7310 O.2   250  HIS250     -0.2864
    135  CB        45.1060    6.4680   45.6560 C.3   250  HIS250      0.0771
    136  CG        45.4380    7.6180   44.7390 C.ar  250  HIS250      0.0820
    137  ND1       46.6120    7.7360   44.0510 N.ar  250  HIS250     -0.2267
    138  CD2       44.6740    8.6950   44.3960 C.ar  250  HIS250      0.1154
    139  CE1       46.5490    8.8450   43.3240 C.ar  250  HIS250      0.1986
    140  NE2       45.4000    9.4430   43.5130 N.ar  250  HIS250     -0.2212
    141  N         42.5430    4.3250   39.0230 N.3   255  TYR255     -0.1241
    142  CA        43.1750    5.4190   38.2880 C.3   255  TYR255      0.1605
    143  C         42.5210    5.8750   36.9830 C.2   255  TYR255      0.2264
    144  O         41.8810    6.9610   36.9020 O.2   255  TYR255     -0.2867
    145  CB        44.6720    5.0960   38.1140 C.3   255  TYR255      0.0534
    146  CG        45.4120    4.8750   39.4090 C.ar  255  TYR255     -0.0201
    147  CD1       45.9870    5.9090   40.1670 C.ar  255  TYR255     -0.0009
    148  CD2       45.5460    3.5650   39.8680 C.ar  255  TYR255     -0.0009
    149  CE1       46.6630    5.6150   41.3530 C.ar  255  TYR255      0.0417
    150  CE2       46.2220    3.2510   41.0490 C.ar  255  TYR255      0.0417
    151  CZ        46.7790    4.2900   41.7850 C.ar  255  TYR255      0.1957
    152  OH        47.4110    3.9080   42.9370 O.3   255  TYR255     -0.2866
    153  N         38.4500    6.5680   36.1410 N.3   258  ARG258     -0.1245
    154  CA        37.9160    7.8690   36.6030 C.3   258  ARG258      0.1563
    155  C         36.5850    7.8300   37.3350 C.2   258  ARG258      0.2260
    156  O         35.5080    8.0970   36.8060 O.2   258  ARG258     -0.2867
    157  CB        37.8400    8.8040   35.3760 C.3   258  ARG258      0.0307
    158  CG        38.9830    8.6910   34.3740 C.3   258  ARG258      0.0489
    159  CD        40.3580    9.0160   34.8380 C.3   258  ARG258      0.2205
    160  NE        40.4940   10.3900   35.2970 N.pl3 258  ARG258     -0.0865
    161  CZ        41.1580   10.8120   36.3840 C.cat 258  ARG258      0.5346
    162  NH1       41.7290    9.9200   37.2100 N.pl3 258  ARG258      0.1354
    163  NH2       41.3350   12.1100   36.6920 N.pl3 258  ARG258      0.1354
    164  N         53.6150    9.5350   49.4630 N.3   352  PHE352     -0.1241
    165  CA        54.8820   10.1900   49.1970 C.3   352  PHE352      0.1605
    166  C         55.7220   10.5140   50.4300 C.2   352  PHE352      0.2264
    167  O         55.4340   10.3250   51.6080 O.2   352  PHE352     -0.2867
    168  CB        54.5670   11.5570   48.5510 C.3   352  PHE352      0.0534
    169  CG        53.4140   11.5720   47.5850 C.ar  352  PHE352     -0.0203
    170  CD1       53.6080   11.2700   46.2280 C.ar  352  PHE352     -0.0042
    171  CD2       52.1410   11.8850   48.0380 C.ar  352  PHE352     -0.0042
    172  CE1       52.5220   11.3070   45.3730 C.ar  352  PHE352     -0.0003
    173  CE2       51.0440   11.9030   47.1980 C.ar  352  PHE352     -0.0003
    174  CZ        51.2530   11.6170   45.8550 C.ar  352  PHE352     -0.0000
    175  N         59.5490   15.7780   45.7480 N.3   378  ARG378     -0.1245
    176  CA        58.4950   14.8540   46.2030 C.3   378  ARG378      0.1563
    177  C         58.7160   13.4890   45.5370 C.2   378  ARG378      0.2260
    178  O         58.9180   13.4910   44.2930 O.2   378  ARG378     -0.2867
    179  CB        57.1060   15.3400   45.7090 C.3   378  ARG378      0.0307
    180  CG        55.9550   14.4700   46.2030 C.3   378  ARG378      0.0489
    181  CD        54.6180   14.9330   45.6760 C.3   378  ARG378      0.2205
    182  NE        54.2910   14.3410   44.3970 N.pl3 378  ARG378     -0.0865
    183  CZ        53.1050   14.2150   43.8270 C.cat 378  ARG378      0.5346
    184  NH1       52.0650   14.7990   44.4490 N.pl3 378  ARG378      0.1354
    185  NH2       52.9210   13.5970   42.6550 N.pl3 378  ARG378      0.1354
@<TRIPOS>BOND
     1    12    11    2
     2    11    10    1
     3    13    14    1
     4    13    10    1
     5   158   159    1
     6   158   157    1
     7    16    14    1
     8    14    15    1
     9    10     9    1
    10   159   160    1
    11   160   161    2
    12   157   154    1
    13     9     3   am
    14   153   154    1
    15     4     3    2
    16   161   163    1
    17   161   162    1
    18     3     2    1
    19   154   155    1
    20   156   155    2
    21   144   143    2
    22     1     2    1
    23   143   142    1
    24    44    42    1
    25     2     5    1
    26    22    21    1
    27   145   142    1
    28   145   146    1
    29    42    43    1
    30    42    39    1
    31   142   141    1
    32    28    29    1
    33     5     7    1
    34     5     6    1
    35    40    41    2
    36    40    39    1
    37    32    29    1
    38    32    33    1
    39    21    23    1
    40    21    18    1
    41    39    38    1
    42   146   148   ar
    43   146   147   ar
    44    29    30    1
    45     6     8    1
    46    17    18    1
    47   148   150   ar
    48   147   149   ar
    49    18    19    1
    50    38    36   am
    51    30    31    2
    52    30    34   am
    53    64    66   ar
    54    64    62   ar
    55   150   151   ar
    56    34    35    1
    57    47    48    2
    58    47    46    1
    59    66    65   ar
    60    36    37    2
    61    36    35    1
    62    19    20    2
    63    19    24   am
    64   149   151   ar
    65   130   127    1
    66    45    46    1
    67    62    61   ar
    68    62    60   ar
    69    61    59   ar
    70   151   152    1
    71    70    69    2
    72    69    68    1
    73    67    68    1
    74    49    46    1
    75    49    50    1
    76    24    25    1
    77   127   128    1
    78   127   126    1
    79    65    63   ar
    80   129   128    2
    81    68    71    1
    82   185   183    1
    83    26    27    2
    84    26    25    1
    85    60    63   ar
    86    60    58   ar
    87    59    58   ar
    88   128   131   am
    89    50    52    1
    90    50    51    1
    91   125   124    1
    92   139   140   ar
    93   139   137   ar
    94    58    57    1
    95   140   138   ar
    96    56    55    2
    97    55    54    1
    98   183   182    2
    99   183   184    1
   100   124   121    1
   101   137   136   ar
   102    71    72    1
   103   131   132    1
   104   178   177    2
   105   121   122    1
   106   121   120    1
   107   138   136   ar
   108   182   181    1
   109    74    72   ar
   110    74    76   ar
   111    57    54    1
   112   136   135    1
   113    54    53    1
   114    72    73   ar
   115   132   135    1
   116   132   133    1
   117   122   123    2
   118   172   174   ar
   119   172   170   ar
   120    76    75   ar
   121   177   176    1
   122    94    92   am
   123   181   180    1
   124   179   176    1
   125   179   180    1
   126   134   133    2
   127   175   176    1
   128   119   118    1
   129    73    75   ar
   130   174   173   ar
   131   170   169   ar
   132   102   100   ar
   133    93    92    2
   134   101   100   ar
   135    92    91    1
   136   107   104    1
   137   118   116   ar
   138   118   117   ar
   139   100    99    1
   140   116   114   ar
   141   173   171   ar
   142   106   105    2
   143   104   105    1
   144   104   103    1
   145   169   171   ar
   146   169   168    1
   147   117   115   ar
   148    91    88    1
   149    99    96    1
   150   105   108   am
   151   114   113   ar
   152    90    89    2
   153   168   165    1
   154    89    88    1
   155    96    97    1
   156    96    95    1
   157   115   113   ar
   158    88    87    1
   159   113   112    1
   160    85    86   ar
   161    85    83   ar
   162   165   164    1
   163   165   166    1
   164   108   109    1
   165    86    84   ar
   166    97    98    2
   167   109   112    1
   168   109   110    1
   169    83    82   ar
   170   166   167    2
   171    84    82   ar
   172    82    81    1
   173   110   111    2
   174    81    78    1
   175    78    77    1
   176    78    79    1
   177    79    80    2
