@<TRIPOS>MOLECULE
tmp/1al6A01.pdb
 232 225 0 0 0
SMALL
GASTEIGER

@<TRIPOS>ATOM
      1  N          6.4700  -16.8720    4.9930 N.3    44  ARG44      -0.1245
      2  CA         7.8160  -17.2170    4.6290 C.3    44  ARG44       0.1563
      3  C          7.8640  -18.5690    3.9650 C.2    44  ARG44       0.2260
      4  O          7.3030  -19.5270    4.4640 O.2    44  ARG44      -0.2867
      5  CB         8.8390  -17.0840    5.7730 C.3    44  ARG44       0.0307
      6  CG        10.2780  -16.9000    5.2890 C.3    44  ARG44       0.0489
      7  CD        10.6510  -15.4670    4.8670 C.3    44  ARG44       0.2205
      8  NE        10.6020  -14.4870    5.9690 N.pl3  44  ARG44      -0.0865
      9  CZ         9.5290  -13.7540    6.3180 C.cat  44  ARG44       0.5346
     10  NH1        8.4240  -13.8950    5.6220 N.pl3  44  ARG44       0.1354
     11  NH2        9.5450  -12.8940    7.3510 N.pl3  44  ARG44       0.1354
     12  N          8.8390   -9.0340   -2.2830 N.3   240  ASN240     -0.1240
     13  CA         9.3460   -8.0390   -1.3740 C.3   240  ASN240      0.1653
     14  C          8.2430   -7.0550   -1.1270 C.2   240  ASN240      0.2266
     15  O          7.3330   -6.9330   -1.9360 O.2   240  ASN240     -0.2867
     16  CB        10.6650   -7.3720   -1.8360 C.3   240  ASN240      0.1155
     17  CG        10.4510   -6.5070   -3.0420 C.2   240  ASN240      0.2627
     18  OD1        9.8840   -5.4220   -2.9340 O.2   240  ASN240     -0.2716
     19  ND2       10.8630   -6.9960   -4.2100 N.am  240  ASN240     -0.0877
     20  N         11.3070    0.3920    8.2340 N.3   270  PRO270     -0.2102
     21  CA        12.6670    0.1470    8.6990 C.3   270  PRO270      0.1504
     22  C         13.2350   -1.2380    8.3370 C.2   270  PRO270      0.2576
     23  O         14.4390   -1.4330    8.1690 O.2   270  PRO270     -0.2718
     24  CB        12.6010    0.3170   10.2250 C.3   270  PRO270      0.0282
     25  CG        11.3000    1.0170   10.5510 C.3   270  PRO270      0.0208
     26  CD        10.4680    1.0540    9.2680 C.3   270  PRO270      0.0893
     27  N         12.3550   -2.2050    8.2000 N.am  271  LEU271     -0.1966
     28  CA        12.7390   -3.5820    7.8400 C.3   271  LEU271      0.1728
     29  C         12.8670   -3.7310    6.3060 C.2   271  LEU271      0.2616
     30  O         13.2960   -4.7780    5.8140 O.2   271  LEU271     -0.2715
     31  CB        11.7140   -4.6430    8.3370 C.3   271  LEU271      0.0311
     32  CG        11.4910   -4.6370    9.8640 C.3   271  LEU271      0.0022
     33  CD1       10.7110   -5.9030   10.2610 C.3   271  LEU271      0.0001
     34  CD2       12.8640   -4.6970   10.5330 C.3   271  LEU271      0.0001
     35  N         12.4430   -2.6790    5.5750 N.am  272  HIS272     -0.1959
     36  CA        12.5470   -2.6600    4.1250 C.3   272  HIS272      0.1787
     37  C         13.5600   -1.6290    3.6410 C.2   272  HIS272      0.2620
     38  O         14.7280   -1.6060    4.0540 O.2   272  HIS272     -0.2715
     39  CB        11.1560   -2.5380    3.4600 C.3   272  HIS272      0.0785
     40  CG        11.0830   -2.8970    1.9970 C.ar  272  HIS272      0.0821
     41  ND1       12.1260   -3.5200    1.3330 N.ar  272  HIS272     -0.2267
     42  CD2       10.0530   -2.7040    1.1140 C.ar  272  HIS272      0.1154
     43  CE1       11.7100   -3.7450    0.0820 C.ar  272  HIS272      0.1986
     44  NE2       10.4780   -3.2160   -0.1000 N.ar  272  HIS272     -0.2212
     45  N         13.1510   -0.7280    2.7590 N.am  273  GLY273     -0.1954
     46  CA        14.0940    0.2350    2.1740 C.3   273  GLY273      0.1869
     47  C         14.6380    1.3040    3.1130 C.2   273  GLY273      0.2309
     48  O         15.7380    1.8170    2.8520 O.2   273  GLY273     -0.2863
     49  N         16.0890    0.7870    5.6690 N.3   275  ALA275     -0.1245
     50  CA        17.3610    0.2510    6.1880 C.3   275  ALA275      0.1562
     51  C         18.5730    1.0170    5.6630 C.2   275  ALA275      0.2260
     52  O         19.6110    1.0980    6.3290 O.2   275  ALA275     -0.2867
     53  CB        17.5070   -1.2820    5.8860 C.3   275  ALA275      0.0290
     54  N         21.8490   -5.7620   19.7370 N.3   307  LEU307     -0.1245
     55  CA        21.0700   -6.9750   19.8060 C.3   307  LEU307      0.1561
     56  C         20.4350   -7.1580   21.1850 C.2   307  LEU307      0.2260
     57  O         19.2880   -7.6020   21.3370 O.2   307  LEU307     -0.2867
     58  CB        21.9440   -8.1940   19.5160 C.3   307  LEU307      0.0270
     59  CG        22.4970   -8.1910   18.0740 C.3   307  LEU307      0.0019
     60  CD1       23.5230   -9.2900   17.9440 C.3   307  LEU307      0.0001
     61  CD2       21.3940   -8.4120   17.0230 C.3   307  LEU307      0.0001
     62  N         16.8440   -4.6330   19.3340 N.3   311  ARG311     -0.1231
     63  CA        16.8650   -3.9620   18.0440 C.3   311  ARG311      0.1694
     64  C         17.5500   -4.8080   16.9640 C.2   311  ARG311      0.2592
     65  O         18.3110   -5.7140   17.2650 O.2   311  ARG311     -0.2718
     66  CB        17.6420   -2.6680   18.1380 C.3   311  ARG311      0.0321
     67  CG        17.3140   -1.8870   19.3780 C.3   311  ARG311      0.0489
     68  CD        18.2760   -0.7380   19.5630 C.3   311  ARG311      0.2205
     69  NE        17.9570    0.0100   20.7890 N.pl3 311  ARG311     -0.0865
     70  CZ        18.8650    0.6270   21.5430 C.cat 311  ARG311      0.5346
     71  NH1       20.1550    0.5910   21.2130 N.pl3 311  ARG311      0.1354
     72  NH2       18.4630    1.2950   22.6560 N.pl3 311  ARG311      0.1354
     73  N         17.3780   -4.4460   15.6870 N.am  312  VAL312     -0.1966
     74  CA        18.0960   -5.2190   14.6630 C.3   312  VAL312      0.1727
     75  C         19.3610   -4.4980   14.2560 C.2   312  VAL312      0.2616
     76  O         19.5220   -3.2880   14.4890 O.2   312  VAL312     -0.2715
     77  CB        17.2400   -5.4960   13.3810 C.3   312  VAL312      0.0290
     78  CG1       15.9410   -6.2660   13.7080 C.3   312  VAL312      0.0023
     79  CG2       16.8600   -4.1820   12.7060 C.3   312  VAL312      0.0023
     80  N         20.2590   -5.2630   13.6280 N.am  313  VAL313     -0.1964
     81  CA        21.4590   -4.6590   13.1010 C.3   313  VAL313      0.1712
     82  C         21.0650   -4.3700   11.6460 C.2   313  VAL313      0.2458
     83  O         20.7380   -5.3330   10.9340 O.2   313  VAL313     -0.2730
     84  CB        22.5960   -5.6720   13.1260 C.3   313  VAL313      0.0289
     85  CG1       23.7710   -5.0920   12.3560 C.3   313  VAL313      0.0023
     86  CG2       22.9540   -5.9580   14.5920 C.3   313  VAL313      0.0023
     87  N         20.9640   -3.0840   11.2620 N.am  314  PRO314     -0.2716
     88  CA        20.4740   -2.7510    9.9220 C.3   314  PRO314      0.1536
     89  C         21.4070   -3.2390    8.8030 C.2   314  PRO314      0.2599
     90  O         22.6180   -3.2210    8.9540 O.2   314  PRO314     -0.2715
     91  CB        20.2890   -1.1970    9.8840 C.3   314  PRO314      0.0310
     92  CG        21.0610   -0.6410   11.0840 C.3   314  PRO314      0.0237
     93  CD        21.2970   -1.8300   12.0390 C.3   314  PRO314      0.0939
     94  N         20.8470   -3.6670    7.6520 N.am  315  GLY315     -0.1941
     95  CA        21.7020   -4.0070    6.5360 C.3   315  GLY315      0.2014
     96  C         22.1960   -5.4430    6.4610 C.2   315  GLY315      0.2639
     97  O         23.0070   -5.8100    5.5930 O.2   315  GLY315     -0.2714
     98  N         21.7540   -6.2340    7.4060 N.am  316  TYR316     -0.1959
     99  CA        22.1480   -7.6430    7.4850 C.3   316  TYR316      0.1771
    100  C         20.9020   -8.5170    7.5690 C.2   316  TYR316      0.2620
    101  O         19.9010   -8.0660    8.1450 O.2   316  TYR316     -0.2715
    102  CB        23.0950   -7.9060    8.6850 C.3   316  TYR316      0.0574
    103  CG        24.5070   -7.4670    8.3400 C.ar  316  TYR316     -0.0198
    104  CD1       24.9010   -6.1250    8.3720 C.ar  316  TYR316     -0.0009
    105  CD2       25.4510   -8.4290    7.9840 C.ar  316  TYR316     -0.0009
    106  CE1       26.2010   -5.7320    8.0370 C.ar  316  TYR316      0.0417
    107  CE2       26.7620   -8.0580    7.6980 C.ar  316  TYR316      0.0417
    108  CZ        27.1340   -6.7160    7.7100 C.ar  316  TYR316      0.1957
    109  OH        28.4190   -6.3490    7.3860 O.3   316  TYR316     -0.2866
    110  N         20.9690   -9.7180    6.9650 N.am  317  GLY317     -0.1940
    111  CA        19.8260  -10.6220    6.9870 C.3   317  GLY317      0.2014
    112  C         18.9440  -10.4230    5.7190 C.2   317  GLY317      0.2639
    113  O         19.0790   -9.4200    4.9790 O.2   317  GLY317     -0.2714
    114  N         18.0480  -11.3870    5.4750 N.am  318  HIS318     -0.1959
    115  CA        17.1620  -11.3040    4.3050 C.3   318  HIS318      0.1787
    116  C         16.0520  -12.3140    4.4030 C.2   318  HIS318      0.2620
    117  O         16.2580  -13.3820    4.9740 O.2   318  HIS318     -0.2715
    118  CB        17.9310  -11.5080    2.9660 C.3   318  HIS318      0.0785
    119  CG        17.2160  -10.9020    1.8100 C.ar  318  HIS318      0.0821
    120  ND1       16.3280  -11.6650    1.0540 N.ar  318  HIS318     -0.2267
    121  CD2       17.2020   -9.6280    1.3290 C.ar  318  HIS318      0.1154
    122  CE1       15.8410  -10.8420    0.1190 C.ar  318  HIS318      0.1986
    123  NE2       16.3560   -9.6200    0.2400 N.ar  318  HIS318     -0.2212
    124  N         14.8720  -12.0100    3.8710 N.am  319  ALA319     -0.1977
    125  CA        13.8120  -12.9970    3.9620 C.3   319  ALA319      0.1597
    126  C         14.0450  -14.1810    3.0240 C.2   319  ALA319      0.2287
    127  O         13.5980  -15.2860    3.2950 O.2   319  ALA319     -0.2864
    128  CB        12.4730  -12.3580    3.6380 C.3   319  ALA319      0.0319
    129  N         20.2420  -16.3170    1.2650 N.3   322  ARG322     -0.1245
    130  CA        20.9180  -17.1190    2.2780 C.3   322  ARG322      0.1563
    131  C         22.4230  -16.9580    2.2070 C.2   322  ARG322      0.2260
    132  O         23.1670  -17.6350    2.8950 O.2   322  ARG322     -0.2867
    133  CB        20.5410  -18.5980    2.1260 C.3   322  ARG322      0.0307
    134  CG        19.0860  -18.8920    2.5160 C.3   322  ARG322      0.0489
    135  CD        18.6930  -18.1880    3.8100 C.3   322  ARG322      0.2205
    136  NE        17.2900  -18.3490    4.2130 N.pl3 322  ARG322     -0.0865
    137  CZ        16.5280  -17.3450    4.6600 C.cat 322  ARG322      0.5346
    138  NH1       17.0030  -16.1090    4.7420 N.pl3 322  ARG322      0.1354
    139  NH2       15.2620  -17.5940    5.0410 N.pl3 322  ARG322      0.1354
    140  N         24.1160   -7.6490   -4.8140 N.3   327  ARG327     -0.1245
    141  CA        24.0420   -6.1770   -4.8920 C.3   327  ARG327      0.1563
    142  C         25.0600   -5.5260   -3.9520 C.2   327  ARG327      0.2260
    143  O         25.6020   -4.4560   -4.2210 O.2   327  ARG327     -0.2867
    144  CB        22.6350   -5.6510   -4.5910 C.3   327  ARG327      0.0307
    145  CG        21.6680   -6.1010   -5.6990 C.3   327  ARG327      0.0489
    146  CD        20.1990   -5.8640   -5.3340 C.3   327  ARG327      0.2205
    147  NE        19.8260   -6.4910   -4.0540 N.pl3 327  ARG327     -0.0865
    148  CZ        18.6780   -6.2410   -3.4300 C.cat 327  ARG327      0.5346
    149  NH1       17.7740   -5.4110   -3.9430 N.pl3 327  ARG327      0.1354
    150  NH2       18.3860   -6.8310   -2.2570 N.pl3 327  ARG327      0.1354
    151  N         26.1760  -12.4220   14.4550 N.3   359  LEU359     -0.1245
    152  CA        24.8310  -12.8970   14.1630 C.3   359  LEU359      0.1561
    153  C         24.7520  -14.4200   14.2500 C.2   359  LEU359      0.2260
    154  O         23.7640  -15.0020   14.7110 O.2   359  LEU359     -0.2867
    155  CB        24.3320  -12.4460   12.7690 C.3   359  LEU359      0.0270
    156  CG        23.9490  -10.9670   12.6520 C.3   359  LEU359      0.0019
    157  CD1       23.4210  -10.6910   11.2360 C.3   359  LEU359      0.0001
    158  CD2       22.8810  -10.5840   13.6880 C.3   359  LEU359      0.0001
    159  N         24.7510  -15.3070   17.8220 N.3   362  GLN362     -0.1245
    160  CA        23.4610  -15.0640   18.4290 C.3   362  GLN362      0.1566
    161  C         22.4710  -16.1640   18.1190 C.2   362  GLN362      0.2260
    162  O         21.5880  -16.4580   18.9030 O.2   362  GLN362     -0.2867
    163  CB        22.8790  -13.7350   17.9880 C.3   362  GLN362      0.0367
    164  CG        21.5620  -13.4790   18.7380 C.3   362  GLN362      0.0905
    165  CD        20.7650  -12.3590   18.1100 C.2   362  GLN362      0.2608
    166  OE1       20.1130  -11.5800   18.8430 O.2   362  GLN362     -0.2717
    167  NE2       20.7530  -12.3200   16.7730 N.am  362  GLN362     -0.0878
    168  N         19.9230  -16.3690   15.8810 N.3   364  LYS364     -0.1231
    169  CA        18.5490  -16.1180   15.5210 C.3   364  LYS364      0.1693
    170  C         18.3650  -15.9200   13.9830 C.2   364  LYS364      0.2592
    171  O         17.5000  -16.5280   13.3550 O.2   364  LYS364     -0.2718
    172  CB        18.0320  -14.9110   16.2740 C.3   364  LYS364      0.0285
    173  CG        17.1100  -15.2950   17.4160 C.3   364  LYS364      0.0035
    174  CD        16.6680  -14.1010   18.2410 C.3   364  LYS364      0.0206
    175  CE        15.7610  -13.1360   17.4880 C.3   364  LYS364      0.1093
    176  NZ        16.1150  -11.7160   17.6320 N.3   364  LYS364     -0.1314
    177  N         19.1500  -15.0390   13.4000 N.am  365  ALA365     -0.1966
    178  CA        19.0120  -14.7540   11.9850 C.3   365  ALA365      0.1728
    179  C         19.2730  -15.9840   11.1320 C.2   365  ALA365      0.2616
    180  O         20.2110  -16.7380   11.3700 O.2   365  ALA365     -0.2715
    181  CB        19.9790  -13.6610   11.5500 C.3   365  ALA365      0.0334
    182  N         18.4440  -16.1670   10.1310 N.am  366  LYS366     -0.1963
    183  CA        18.6060  -17.2730    9.2010 C.3   366  LYS366      0.1728
    184  C         19.7740  -16.9790    8.2490 C.2   366  LYS366      0.2616
    185  O         20.5480  -17.8550    7.8620 O.2   366  LYS366     -0.2715
    186  CB        17.3280  -17.5320    8.3910 C.3   366  LYS366      0.0311
    187  CG        16.1220  -17.8150    9.2660 C.3   366  LYS366      0.0038
    188  CD        15.5680  -19.2000    9.0350 C.3   366  LYS366      0.0206
    189  CE        15.0660  -19.8350   10.3150 C.3   366  LYS366      0.1093
    190  NZ        14.3520  -21.0950   10.0710 N.3   366  LYS366     -0.1314
    191  N         19.8760  -15.7190    7.8550 N.am  367  ASN367     -0.1972
    192  CA        20.9030  -15.2480    6.9490 C.3   367  ASN367      0.1688
    193  C         21.7400  -14.1980    7.6520 C.2   367  ASN367      0.2292
    194  O         21.2720  -13.0910    7.8770 O.2   367  ASN367     -0.2864
    195  CB        20.2560  -14.6080    5.6850 C.3   367  ASN367      0.1181
    196  CG        21.3020  -13.9990    4.7590 C.2   367  ASN367      0.2629
    197  OD1       22.4650  -14.3890    4.7890 O.2   367  ASN367     -0.2716
    198  ND2       20.8970  -13.0330    3.9300 N.am  367  ASN367     -0.0877
    199  N         23.0110   -7.3530    3.1890 N.3   371  ASN371     -0.1225
    200  CA        22.1090   -7.1150    2.0840 C.3   371  ASN371      0.1785
    201  C         22.5010   -5.7810    1.4700 C.2   371  ASN371      0.2597
    202  O         23.3880   -5.1080    1.9910 O.2   371  ASN371     -0.2718
    203  CB        20.6360   -7.1610    2.4790 C.3   371  ASN371      0.1169
    204  CG        20.3340   -6.1280    3.5670 C.2   371  ASN371      0.2627
    205  OD1       20.5920   -4.9330    3.3730 O.2   371  ASN371     -0.2716
    206  ND2       19.7680   -6.5560    4.6900 N.am  371  ASN371     -0.0877
    207  N         21.9040   -5.4470    0.3190 N.am  372  VAL372     -0.1966
    208  CA        22.2130   -4.2370   -0.4270 C.3   372  VAL372      0.1727
    209  C         22.3470   -2.9700    0.4710 C.2   372  VAL372      0.2616
    210  O         23.2130   -2.1170    0.2490 O.2   372  VAL372     -0.2715
    211  CB        21.1520   -4.0100   -1.5410 C.3   372  VAL372      0.0290
    212  CG1       19.7470   -3.7270   -0.9410 C.3   372  VAL372      0.0023
    213  CG2       21.5600   -2.9010   -2.5070 C.3   372  VAL372      0.0023
    214  N         21.4680   -2.8440    1.4550 N.am  373  ASP373     -0.1971
    215  CA        21.4320   -1.6240    2.2820 C.3   373  ASP373      0.1709
    216  C         22.6510   -1.3880    3.1410 C.2   373  ASP373      0.2293
    217  O         22.8970   -0.2310    3.6070 O.2   373  ASP373     -0.2864
    218  CB        20.1370   -1.5180    3.0880 C.3   373  ASP373      0.1436
    219  CG        18.9210   -1.5590    2.1900 C.2   373  ASP373      0.3671
    220  OD1       18.9270   -0.7250    1.1910 O.co2 373  ASP373     -0.2456
    221  OD2       18.0300   -2.3370    2.3570 O.co2 373  ASP373     -0.2456
    222  N         16.1860    4.9680   -3.5540 N.3   395  PHE395     -0.1241
    223  CA        15.7630    3.5940   -3.7020 C.3   395  PHE395      0.1605
    224  C         14.4100    3.5720   -4.3640 C.2   395  PHE395      0.2264
    225  O         14.1600    2.7820   -5.2710 O.2   395  PHE395     -0.2867
    226  CB        15.7010    2.9260   -2.2970 C.3   395  PHE395      0.0534
    227  CG        15.7880    1.4240   -2.2360 C.ar  395  PHE395     -0.0203
    228  CD1       15.2710    0.6040   -3.2440 C.ar  395  PHE395     -0.0042
    229  CD2       16.3480    0.7980   -1.1180 C.ar  395  PHE395     -0.0042
    230  CE1       15.3410   -0.7910   -3.1510 C.ar  395  PHE395     -0.0003
    231  CE2       16.4120   -0.5980   -0.9960 C.ar  395  PHE395     -0.0003
    232  CZ        15.9140   -1.3960   -2.0290 C.ar  395  PHE395     -0.0000
@<TRIPOS>BOND
     1   145   146    1
     2   145   144    1
     3   146   147    1
     4   225   224    2
     5   141   140    1
     6   141   144    1
     7   141   142    1
     8   224   223    1
     9   143   142    2
    10    19    17   am
    11   147   148    2
    12   149   148    1
    13   223   222    1
    14   223   226    1
    15   148   150    1
    16   228   230   ar
    17   228   227   ar
    18   230   232   ar
    19    17    18    2
    20    17    16    1
    21   213   211    1
    22   226   227    1
    23    12    13    1
    24   227   229   ar
    25   232   231   ar
    26    15    14    2
    27    16    13    1
    28   211   212    1
    29   211   208    1
    30    13    14    1
    31   229   231   ar
    32   208   207    1
    33   208   209    1
    34    44    43   ar
    35    44    42   ar
    36    43    41   ar
    37   122   123   ar
    38   122   120   ar
    39   123   121   ar
    40   210   209    2
    41   207   201   am
    42   209   214   am
    43   120   119   ar
    44    42    40   ar
    45   220   219   ar
    46   129   130    1
    47   121   119   ar
    48    41    40   ar
    49   214   215    1
    50   201   202    2
    51   201   200    1
    52   119   118    1
    53    40    39    1
    54   200   203    1
    55   200   199    1
    56   133   130    1
    57   133   134    1
    58    46    45    1
    59    46    47    1
    60   219   221   ar
    61   219   218    1
    62   131   130    1
    63   131   132    2
    64   215   218    1
    65   215   216    1
    66   203   204    1
    67   134   135    1
    68    45    37   am
    69    48    47    2
    70   118   115    1
    71   126   127    2
    72   126   125    1
    73   216   217    2
    74   205   204    2
    75    39    36    1
    76   204   206   am
    77   128   125    1
    78    37    38    2
    79    37    36    1
    80   135   136    1
    81   124   125    1
    82   124   116   am
    83   198   196   am
    84     3     4    2
    85     3     2    1
    86    36    35    1
    87   136   137    2
    88   115   116    1
    89   115   114    1
    90   116   117    2
    91     2     1    1
    92     2     5    1
    93   137   138    1
    94   137   139    1
    95   196   197    2
    96   196   195    1
    97     7     6    1
    98     7     8    1
    99   113   112    2
   100     6     5    1
   101   114   112   am
   102    35    29   am
   103    97    96    2
   104    10     9    1
   105    51    50    1
   106    51    52    2
   107    49    50    1
   108   195   192    1
   109   112   111    1
   110    30    29    2
   111    53    50    1
   112     8     9    2
   113    29    28    1
   114     9    11    1
   115    96    95    1
   116    96    98   am
   117    95    94    1
   118   192   193    1
   119   192   191    1
   120   110   111    1
   121   110   100   am
   122   109   108    1
   123    98    99    1
   124    99   100    1
   125    99   102    1
   126   100   101    2
   127   193   194    2
   128    94    89   am
   129   107   108   ar
   130   107   105   ar
   131   108   106   ar
   132    28    27    1
   133    28    31    1
   134   191   184   am
   135   185   184    2
   136   105   103   ar
   137   106   104   ar
   138    23    22    2
   139    27    22   am
   140    20    21    1
   141    20    26    1
   142   184   183    1
   143    22    21    1
   144    31    32    1
   145   103   104   ar
   146   103   102    1
   147   186   183    1
   148   186   187    1
   149    21    24    1
   150    89    90    2
   151    89    88    1
   152   188   187    1
   153   188   189    1
   154   183   182    1
   155    26    25    1
   156    32    33    1
   157    32    34    1
   158    91    88    1
   159    91    92    1
   160    88    87    1
   161   190   189    1
   162   182   179   am
   163    24    25    1
   164    83    82    2
   165    92    93    1
   166   179   180    2
   167   179   178    1
   168   157   156    1
   169    87    82   am
   170    87    93    1
   171   181   178    1
   172    82    81    1
   173   178   177    1
   174    85    84    1
   175   156   155    1
   176   156   158    1
   177    79    77    1
   178   155   152    1
   179    81    84    1
   180    81    80    1
   181    84    86    1
   182   171   170    2
   183    77    78    1
   184    77    74    1
   185   177   170   am
   186    80    75   am
   187   170   169    1
   188   152   153    1
   189   152   151    1
   190   153   154    2
   191    75    76    2
   192    75    74    1
   193    74    73    1
   194   169   168    1
   195   169   172    1
   196    73    64   am
   197   172   173    1
   198   167   165   am
   199    64    65    2
   200    64    63    1
   201    61    59    1
   202   173   174    1
   203   175   176    1
   204   175   174    1
   205   159   160    1
   206    60    59    1
   207   163   160    1
   208   163   164    1
   209    63    66    1
   210    63    62    1
   211    59    58    1
   212   165   164    1
   213   165   166    2
   214   161   160    1
   215   161   162    2
   216    66    67    1
   217    67    68    1
   218    58    55    1
   219    68    69    1
   220    54    55    1
   221    55    56    1
   222    69    70    2
   223    56    57    2
   224    71    70    1
   225    70    72    1
