@<TRIPOS>MOLECULE
tmp/1al7A01.pdb
 164 155 0 0 0
SMALL
GASTEIGER

@<TRIPOS>ATOM
      1  N         52.9650   58.6030   10.3560 N.3    24  TYR24      -0.1241
      2  CA        52.1510   58.0740   11.4440 C.3    24  TYR24       0.1605
      3  C         53.0320   57.3570   12.4790 C.2    24  TYR24       0.2264
      4  O         52.8860   57.5800   13.6750 O.2    24  TYR24      -0.2867
      5  CB        51.0570   57.1340   10.9160 C.3    24  TYR24       0.0534
      6  CG        50.4250   56.2900   12.0040 C.ar   24  TYR24      -0.0201
      7  CD1       49.6880   56.8770   13.0350 C.ar   24  TYR24      -0.0009
      8  CD2       50.6530   54.9150   12.0630 C.ar   24  TYR24      -0.0009
      9  CE1       49.2090   56.1160   14.1040 C.ar   24  TYR24       0.0417
     10  CE2       50.1770   54.1470   13.1280 C.ar   24  TYR24       0.0417
     11  CZ        49.4630   54.7530   14.1450 C.ar   24  TYR24       0.1957
     12  OH        49.0360   53.9990   15.2150 O.3    24  TYR24      -0.2866
     13  N         52.4790   48.3740   19.3790 N.3    78  THR78      -0.1203
     14  CA        52.3760   49.4720   18.4290 C.3    78  THR78       0.1994
     15  C         50.9460   49.4230   17.9150 C.2    78  THR78       0.2618
     16  O         50.0390   49.3010   18.7270 O.2    78  THR78      -0.2717
     17  CB        53.4150   49.4160   17.3010 C.3    78  THR78       0.1784
     18  OG1       53.8190   48.0630   17.0690 O.3    78  THR78      -0.2211
     19  CG2       54.6300   50.2590   17.6700 C.3    78  THR78       0.0376
     20  N         50.7090   49.4950   16.6110 N.am   79  ALA79      -0.1965
     21  CA        49.3320   49.4480   16.1230 C.3    79  ALA79       0.1728
     22  C         49.2870   49.4070   14.6160 C.2    79  ALA79       0.2616
     23  O         50.0750   50.0870   13.9480 O.2    79  ALA79      -0.2715
     24  CB        48.5340   50.6480   16.6330 C.3    79  ALA79       0.0334
     25  N         48.3880   48.5850   14.0810 N.am   80  MET80      -0.1977
     26  CA        48.2370   48.4650   12.6370 C.3    80  MET80       0.1605
     27  C         49.5790   48.1260   11.9720 C.2    80  MET80       0.2287
     28  O         49.9830   48.7500   10.9950 O.2    80  MET80      -0.2864
     29  CB        47.6630   49.7770   12.0720 C.3    80  MET80       0.0413
     30  CG        46.2580   50.1220   12.5810 C.3    80  MET80       0.0598
     31  SD        46.0050   51.8860   12.9120 S.3    80  MET80      -0.1393
     32  CE        46.0220   52.5420   11.2970 C.3    80  MET80       0.0692
     33  N         48.6130   45.0170   20.6820 N.3   106  SER106     -0.1217
     34  CA        47.7210   46.1610   20.7590 C.3   106  SER106      0.1889
     35  C         46.2970   45.7390   20.3860 C.2   106  SER106      0.2288
     36  O         46.0960   44.8800   19.5150 O.2   106  SER106     -0.2866
     37  CB        48.2020   47.2500   19.7950 C.3   106  SER106      0.2089
     38  OG        47.2490   48.2970   19.6530 O.3   106  SER106     -0.2183
     39  N         44.3010   47.5040   18.7870 N.3   108  TRP108     -0.1241
     40  CA        44.1510   48.0450   17.4230 C.3   108  TRP108      0.1605
     41  C         45.0270   47.2990   16.4140 C.2   108  TRP108      0.2264
     42  O         45.4270   47.8710   15.3990 O.2   108  TRP108     -0.2867
     43  CB        44.5870   49.5170   17.3940 C.3   108  TRP108      0.0550
     44  CG        43.5370   50.5340   17.0780 C.ar  108  TRP108      0.0003
     45  CD1       43.4160   51.2860   15.9260 C.ar  108  TRP108      0.0946
     46  CD2       42.5200   51.0140   17.9640 C.ar  108  TRP108      0.0152
     47  NE1       42.4210   52.2090   16.0520 N.ar  108  TRP108     -0.2442
     48  CE2       41.8520   52.0810   17.2820 C.ar  108  TRP108      0.0810
     49  CE3       42.1210   50.6780   19.2530 C.ar  108  TRP108      0.0012
     50  CZ2       40.8180   52.7940   17.8760 C.ar  108  TRP108      0.0191
     51  CZ3       41.0890   51.3910   19.8400 C.ar  108  TRP108      0.0001
     52  CH2       40.4440   52.4370   19.1390 C.ar  108  TRP108      0.0015
     53  N         47.4700   44.6840   25.3670 N.3   127  GLN127     -0.1245
     54  CA        47.2960   46.0900   25.6990 C.3   127  GLN127      0.1566
     55  C         45.8490   46.4470   25.4050 C.2   127  GLN127      0.2260
     56  O         45.3130   46.1120   24.3380 O.2   127  GLN127     -0.2867
     57  CB        48.2460   46.9530   24.8690 C.3   127  GLN127      0.0367
     58  CG        48.2740   48.4110   25.2620 C.3   127  GLN127      0.0905
     59  CD        47.2050   49.2110   24.5720 C.2   127  GLN127      0.2608
     60  OE1       47.0320   49.1200   23.3570 O.2   127  GLN127     -0.2717
     61  NE2       46.4720   50.0030   25.3380 N.am  127  GLN127     -0.0878
     62  N         42.3660   49.4850   26.3190 N.3   129  TYR129     -0.1241
     63  CA        41.8580   50.7540   26.8500 C.3   129  TYR129      0.1605
     64  C         40.4400   50.4710   27.3280 C.2   129  TYR129      0.2264
     65  O         39.6810   49.8010   26.6320 O.2   129  TYR129     -0.2867
     66  CB        41.7590   51.8280   25.7580 C.3   129  TYR129      0.0534
     67  CG        43.0550   52.4070   25.2440 C.ar  129  TYR129     -0.0201
     68  CD1       43.7910   53.3180   26.0040 C.ar  129  TYR129     -0.0009
     69  CD2       43.5300   52.0700   23.9790 C.ar  129  TYR129     -0.0009
     70  CE1       44.9760   53.8770   25.5130 C.ar  129  TYR129      0.0417
     71  CE2       44.7050   52.6210   23.4790 C.ar  129  TYR129      0.0417
     72  CZ        45.4260   53.5170   24.2490 C.ar  129  TYR129      0.1957
     73  OH        46.6160   54.0110   23.7670 O.3   129  TYR129     -0.2866
     74  N         37.1300   51.0110   27.1510 N.3   131  TYR131     -0.1241
     75  CA        36.2030   51.7340   26.2880 C.3   131  TYR131      0.1605
     76  C         34.8620   51.9910   26.9680 C.2   131  TYR131      0.2264
     77  O         34.5500   51.3800   27.9920 O.2   131  TYR131     -0.2867
     78  CB        35.9750   50.9670   24.9880 C.3   131  TYR131      0.0534
     79  CG        37.2440   50.6680   24.2270 C.ar  131  TYR131     -0.0201
     80  CD1       37.8810   51.6530   23.4730 C.ar  131  TYR131     -0.0009
     81  CD2       37.8320   49.4020   24.2880 C.ar  131  TYR131     -0.0009
     82  CE1       39.0730   51.3870   22.8020 C.ar  131  TYR131      0.0417
     83  CE2       39.0230   49.1310   23.6210 C.ar  131  TYR131      0.0417
     84  CZ        39.6360   50.1260   22.8850 C.ar  131  TYR131      0.1957
     85  OH        40.8230   49.8500   22.2480 O.3   131  TYR131     -0.2866
     86  N         46.0600   58.1480   27.4990 N.3   158  THR158     -0.1218
     87  CA        45.3460   58.6090   26.3110 C.3   158  THR158      0.1862
     88  C         43.8420   58.8690   26.5440 C.2   158  THR158      0.2287
     89  O         42.9920   58.2450   25.8940 O.2   158  THR158     -0.2866
     90  CB        45.5330   57.6050   25.1260 C.3   158  THR158      0.1770
     91  OG1       46.9190   57.2670   25.0080 O.3   158  THR158     -0.2211
     92  CG2       45.0640   58.2160   23.8040 C.3   158  THR158      0.0375
     93  N         43.3360   61.8100   22.4030 N.3   161  LEU161     -0.1245
     94  CA        44.4960   61.7090   21.5150 C.3   161  LEU161      0.1561
     95  C         45.3380   62.9800   21.4370 C.2   161  LEU161      0.2260
     96  O         44.8060   64.0970   21.4160 O.2   161  LEU161     -0.2867
     97  CB        44.0510   61.3690   20.0960 C.3   161  LEU161      0.0270
     98  CG        44.2480   59.9600   19.5520 C.3   161  LEU161      0.0019
     99  CD1       43.9400   60.0510   18.0700 C.3   161  LEU161      0.0001
    100  CD2       45.6730   59.4470   19.7720 C.3   161  LEU161      0.0001
    101  N         49.2210   64.9680   16.6460 N.3   164  ARG164     -0.1245
    102  CA        50.3840   64.6370   15.8380 C.3   164  ARG164      0.1563
    103  C         50.0400   65.3460   14.5360 C.2   164  ARG164      0.2260
    104  O         49.3000   64.8270   13.6910 O.2   164  ARG164     -0.2867
    105  CB        50.5070   63.1220   15.6450 C.3   164  ARG164      0.0307
    106  CG        50.6060   62.3360   16.9560 C.3   164  ARG164      0.0489
    107  CD        49.2430   61.8590   17.4240 C.3   164  ARG164      0.2205
    108  NE        49.2820   61.2010   18.7310 N.pl3 164  ARG164     -0.0865
    109  CZ        49.2450   59.8790   18.9180 C.cat 164  ARG164      0.5346
    110  NH1       49.1730   59.0460   17.8840 N.pl3 164  ARG164      0.1354
    111  NH2       49.2490   59.3870   20.1500 N.pl3 164  ARG164      0.1354
    112  N         49.9040   63.9090   10.8210 N.3   167  ASP167     -0.1239
    113  CA        48.7230   63.1100   10.4880 C.3   167  ASP167      0.1674
    114  C         47.5800   64.0010   10.0090 C.2   167  ASP167      0.2266
    115  O         46.8620   63.6580    9.0700 O.2   167  ASP167     -0.2867
    116  CB        48.2640   62.2690   11.6930 C.3   167  ASP167      0.1410
    117  CG        49.2150   61.1160   12.0160 C.2   167  ASP167      0.3668
    118  OD1       49.9670   60.6860   11.1290 O.co2 167  ASP167     -0.2456
    119  OD2       49.2150   60.6350   13.1650 O.co2 167  ASP167     -0.2456
    120  N         45.3730   61.2690    7.5570 N.3   172  PHE172     -0.1241
    121  CA        45.6060   59.8520    7.7730 C.3   172  PHE172      0.1605
    122  C         44.3470   59.0050    7.7890 C.2   172  PHE172      0.2264
    123  O         43.3680   59.3390    8.4600 O.2   172  PHE172     -0.2867
    124  CB        46.3730   59.6560    9.0800 C.3   172  PHE172      0.0534
    125  CG        46.7030   58.2270    9.3760 C.ar  172  PHE172     -0.0203
    126  CD1       47.7770   57.6080    8.7530 C.ar  172  PHE172     -0.0042
    127  CD2       45.9380   57.4950   10.2780 C.ar  172  PHE172     -0.0042
    128  CE1       48.0890   56.2760    9.0210 C.ar  172  PHE172     -0.0003
    129  CE2       46.2410   56.1610   10.5550 C.ar  172  PHE172     -0.0003
    130  CZ        47.3200   55.5510    9.9240 C.ar  172  PHE172     -0.0000
    131  N         37.7220   54.7270   17.8470 N.3   195  ALA195     -0.1245
    132  CA        38.3540   55.9900   18.2150 C.3   195  ALA195      0.1562
    133  C         37.3350   56.7950   19.0190 C.2   195  ALA195      0.2260
    134  O         37.6830   57.4920   19.9710 O.2   195  ALA195     -0.2867
    135  CB        38.7780   56.7600   16.9830 C.3   195  ALA195      0.0290
    136  N         36.6060   55.8410   23.0270 N.3   198  ILE198     -0.1245
    137  CA        37.4920   56.2130   24.1230 C.3   198  ILE198      0.1561
    138  C         36.6790   56.8270   25.2530 C.2   198  ILE198      0.2260
    139  O         35.8980   57.7600   25.0410 O.2   198  ILE198     -0.2867
    140  CB        38.5590   57.2410   23.6950 C.3   198  ILE198      0.0252
    141  CG1       39.2610   56.7860   22.4200 C.3   198  ILE198      0.0019
    142  CG2       39.5920   57.4100   24.8070 C.3   198  ILE198      0.0019
    143  CD1       40.2380   57.8060   21.8780 C.3   198  ILE198      0.0001
    144  N         54.2210   57.5450   26.0720 N.3   245  HIS245     -0.1241
    145  CA        53.5960   57.1100   24.8330 C.3   245  HIS245      0.1621
    146  C         54.4500   57.3640   23.6080 C.2   245  HIS245      0.2264
    147  O         53.9190   57.5590   22.5250 O.2   245  HIS245     -0.2867
    148  CB        52.2210   57.7900   24.6810 C.3   245  HIS245      0.0745
    149  CG        51.2070   56.9670   23.9450 C.ar  245  HIS245      0.0817
    150  ND1       50.2330   56.2320   24.5850 N.ar  245  HIS245     -0.2268
    151  CD2       50.9820   56.8060   22.6140 C.ar  245  HIS245      0.1154
    152  CE1       49.4500   55.6530   23.6880 C.ar  245  HIS245      0.1986
    153  NE2       49.8860   55.9900   22.4860 N.ar  245  HIS245     -0.2212
    154  N         53.9760   60.9460   21.9280 N.3   248  ARG248     -0.1245
    155  CA        52.8920   61.2460   20.9950 C.3   248  ARG248      0.1563
    156  C         51.6480   61.8610   21.6400 C.2   248  ARG248      0.2260
    157  O         50.6930   62.2170   20.9520 O.2   248  ARG248     -0.2867
    158  CB        52.5200   59.9890   20.2160 C.3   248  ARG248      0.0307
    159  CG        53.6390   58.9740   20.1750 C.3   248  ARG248      0.0489
    160  CD        53.8950   58.4290   18.8070 C.3   248  ARG248      0.2205
    161  NE        52.7260   57.7850   18.2310 N.pl3 248  ARG248     -0.0865
    162  CZ        52.6340   57.4860   16.9420 C.cat 248  ARG248      0.5346
    163  NH1       53.6480   57.7710   16.1360 N.pl3 248  ARG248      0.1354
    164  NH2       51.5230   56.9560   16.4500 N.pl3 248  ARG248      0.1354
@<TRIPOS>BOND
     1   120   121    1
     2   121   122    1
     3   121   124    1
     4   122   123    2
     5   126   128   ar
     6   126   125   ar
     7   128   130   ar
     8   115   114    2
     9   124   125    1
    10   125   127   ar
    11   130   129   ar
    12   114   113    1
    13   127   129   ar
    14     1     2    1
    15   113   112    1
    16   113   116    1
    17     5     2    1
    18     5     6    1
    19    28    27    2
    20   118   117   ar
    21    32    31    1
    22     2     3    1
    23   116   117    1
    24    27    26    1
    25     6     8   ar
    26     6     7   ar
    27   117   119   ar
    28     8    10   ar
    29    29    30    1
    30    29    26    1
    31     3     4    2
    32    30    31    1
    33    26    25    1
    34     7     9   ar
    35    10    11   ar
    36   104   103    2
    37    23    22    2
    38    25    22   am
    39     9    11   ar
    40    11    12    1
    41   103   102    1
    42    22    21    1
    43    42    41    2
    44   105   102    1
    45   105   106    1
    46   102   101    1
    47    45    47   ar
    48    45    44   ar
    49    47    48   ar
    50    21    20    1
    51    21    24    1
    52   163   162    1
    53    41    40    1
    54   164   162    1
    55    20    15   am
    56   162   161    2
    57   106   107    1
    58   135   132    1
    59    18    17    1
    60    44    43    1
    61    44    46   ar
    62    48    50   ar
    63    48    46   ar
    64    17    19    1
    65    17    14    1
    66    43    40    1
    67    40    39    1
    68   107   108    1
    69   131   132    1
    70    50    52   ar
    71   110   109    1
    72    15    14    1
    73    15    16    2
    74    46    49   ar
    75    99    98    1
    76   132   133    1
    77   161   160    1
    78    14    13    1
    79   108   109    2
    80   160   159    1
    81   109   111    1
    82   133   134    2
    83    52    51   ar
    84    49    51   ar
    85    36    35    2
    86    98   100    1
    87    98    97    1
    88    38    37    1
    89    37    34    1
    90    97    94    1
    91   159   158    1
    92   158   155    1
    93    35    34    1
    94    33    34    1
    95   157   156    2
    96   155   156    1
    97   155   154    1
    98    96    95    2
    99    95    94    1
   100    94    93    1
   101   143   141    1
   102    85    84    1
   103   141   140    1
   104   153   151   ar
   105   153   152   ar
   106   147   146    2
   107   151   149   ar
   108    82    84   ar
   109    82    80   ar
   110    84    83   ar
   111   136   137    1
   112    60    59    2
   113    80    79   ar
   114    71    69   ar
   115    71    72   ar
   116   146   145    1
   117    83    81   ar
   118   152   150   ar
   119   140   137    1
   120   140   142    1
   121    73    72    1
   122    92    90    1
   123   149   150   ar
   124   149   148    1
   125    69    67   ar
   126   137   138    1
   127    79    81   ar
   128    79    78    1
   129    72    70   ar
   130    56    55    2
   131    59    58    1
   132    59    61   am
   133   148   145    1
   134   145   144    1
   135    57    58    1
   136    57    54    1
   137    78    75    1
   138    91    90    1
   139   139   138    2
   140    90    87    1
   141    67    66    1
   142    67    68   ar
   143    53    54    1
   144    55    54    1
   145    70    68   ar
   146    66    63    1
   147    89    88    2
   148    75    76    1
   149    75    74    1
   150    87    88    1
   151    87    86    1
   152    62    63    1
   153    65    64    2
   154    63    64    1
   155    76    77    2
