@<TRIPOS>MOLECULE
tmp/1al8A01.pdb
 145 140 0 0 0
SMALL
GASTEIGER

@<TRIPOS>ATOM
      1  N         27.5830   68.2640  -21.1730 N.3    20  MET20      -0.1230
      2  CA        27.7170   69.2250  -20.0900 C.3    20  MET20       0.1702
      3  C         26.8180   68.9280  -18.9010 C.2    20  MET20       0.2592
      4  O         27.2290   69.0870  -17.7530 O.2    20  MET20      -0.2718
      5  CB        27.4270   70.6330  -20.5890 C.3    20  MET20       0.0401
      6  CG        28.5180   71.1960  -21.4600 C.3    20  MET20       0.0596
      7  SD        28.4200   72.9810  -21.5320 S.3    20  MET20      -0.1393
      8  CE        26.9940   73.1780  -22.6010 C.3    20  MET20       0.0692
      9  N         25.5910   68.5060  -19.1840 N.am   21  VAL21      -0.1980
     10  CA        24.6370   68.2070  -18.1370 C.3    21  VAL21       0.1595
     11  C         25.0180   66.9300  -17.4150 C.2    21  VAL21       0.2287
     12  O         25.0740   66.9240  -16.1870 O.2    21  VAL21      -0.2864
     13  CB        23.1950   68.1270  -18.6790 C.3    21  VAL21       0.0276
     14  CG1       22.2170   67.9080  -17.5510 C.3    21  VAL21       0.0022
     15  CG2       22.8460   69.4200  -19.4000 C.3    21  VAL21       0.0022
     16  N         28.0680   67.4480  -15.2250 N.3    24  TYR24      -0.1241
     17  CA        27.7160   68.2660  -14.0770 C.3    24  TYR24       0.1605
     18  C         27.0760   67.3950  -12.9950 C.2    24  TYR24       0.2264
     19  O         27.3950   67.5310  -11.8180 O.2    24  TYR24      -0.2867
     20  CB        26.7740   69.3990  -14.5230 C.3    24  TYR24       0.0534
     21  CG        25.8940   69.9460  -13.4340 C.ar   24  TYR24      -0.0201
     22  CD1       26.4270   70.7090  -12.4010 C.ar   24  TYR24      -0.0009
     23  CD2       24.5420   69.6430  -13.4010 C.ar   24  TYR24      -0.0009
     24  CE1       25.6320   71.1510  -11.3560 C.ar   24  TYR24       0.0417
     25  CE2       23.7390   70.0770  -12.3640 C.ar   24  TYR24       0.0417
     26  CZ        24.2890   70.8260  -11.3420 C.ar   24  TYR24       0.1957
     27  OH        23.5040   71.2280  -10.2900 O.3    24  TYR24      -0.2866
     28  N         18.8280   69.7990   -6.8750 N.3    79  ALA79      -0.1231
     29  CA        18.2590   70.9920   -7.4960 C.3    79  ALA79       0.1694
     30  C         17.7650   70.8900   -8.9410 C.2    79  ALA79       0.2591
     31  O         18.2710   70.1020   -9.7390 O.2    79  ALA79      -0.2718
     32  CB        19.2540   72.1290   -7.3900 C.3    79  ALA79       0.0304
     33  N         16.7580   71.7010   -9.2470 N.am   80  MET80      -0.1979
     34  CA        16.1800   71.8070  -10.5850 C.3    80  MET80       0.1605
     35  C         15.9800   70.5140  -11.3640 C.2    80  MET80       0.2287
     36  O         16.5020   70.3640  -12.4700 O.2    80  MET80      -0.2864
     37  CB        17.0310   72.7620  -11.4140 C.3    80  MET80       0.0413
     38  CG        17.2660   74.0860  -10.7290 C.3    80  MET80       0.0598
     39  SD        18.3340   75.1330  -11.6760 S.3    80  MET80      -0.1393
     40  CE        17.1070   75.8230  -12.7860 C.3    80  MET80       0.0692
     41  N         15.1530   69.9060  -15.2670 N.3    83  MET83      -0.1245
     42  CA        16.2020   69.9410  -16.2740 C.3    83  MET83       0.1570
     43  C         16.5620   68.5010  -16.6880 C.2    83  MET83       0.2261
     44  O         17.1150   68.2750  -17.7640 O.2    83  MET83      -0.2867
     45  CB        17.4300   70.6820  -15.7380 C.3    83  MET83       0.0387
     46  CG        18.5090   70.9550  -16.7800 C.3    83  MET83       0.0595
     47  SD        19.8350   72.0370  -16.1830 S.3    83  MET83      -0.1393
     48  CE        20.9280   70.8440  -15.3860 C.3    83  MET83       0.0692
     49  N         16.6000   75.0200   -4.4060 N.3   108  TRP108     -0.1241
     50  CA        16.7840   75.3720   -5.8180 C.3   108  TRP108      0.1605
     51  C         15.8920   74.4860   -6.6970 C.2   108  TRP108      0.2264
     52  O         16.3290   74.0430   -7.7570 O.2   108  TRP108     -0.2867
     53  CB        18.2090   75.0840   -6.3060 C.3   108  TRP108      0.0550
     54  CG        19.4080   75.6190   -5.5810 C.ar  108  TRP108      0.0003
     55  CD1       20.6590   75.0470   -5.5640 C.ar  108  TRP108      0.0946
     56  CD2       19.5430   76.8800   -4.9270 C.ar  108  TRP108      0.0152
     57  NE1       21.5640   75.8870   -4.9650 N.ar  108  TRP108     -0.2442
     58  CE2       20.9100   77.0200   -4.5640 C.ar  108  TRP108      0.0810
     59  CE3       18.6550   77.9090   -4.6180 C.ar  108  TRP108      0.0012
     60  CZ2       21.3980   78.1420   -3.9170 C.ar  108  TRP108      0.0191
     61  CZ3       19.1370   79.0120   -3.9800 C.ar  108  TRP108      0.0001
     62  CH2       20.5020   79.1270   -3.6320 C.ar  108  TRP108      0.0015
     63  N         18.5090   76.4330    2.2890 N.3   129  TYR129     -0.1241
     64  CA        19.7870   77.0710    1.9960 C.3   129  TYR129      0.1605
     65  C         19.5690   78.4320    2.6310 C.2   129  TYR129      0.2264
     66  O         18.5630   79.0910    2.3560 O.2   129  TYR129     -0.2867
     67  CB        20.0130   77.2330    0.4930 C.3   129  TYR129      0.0534
     68  CG        20.7970   76.1030   -0.1290 C.ar  129  TYR129     -0.0201
     69  CD1       21.9140   75.5690    0.5170 C.ar  129  TYR129     -0.0009
     70  CD2       20.4220   75.5610   -1.3560 C.ar  129  TYR129     -0.0009
     71  CE1       22.6320   74.5290   -0.0440 C.ar  129  TYR129      0.0417
     72  CE2       21.1380   74.5130   -1.9230 C.ar  129  TYR129      0.0417
     73  CZ        22.2400   74.0040   -1.2630 C.ar  129  TYR129      0.1957
     74  OH        22.9610   72.9620   -1.8040 O.3   129  TYR129     -0.2866
     75  N         27.6050   73.1480    1.7420 N.3   158  THR158     -0.1204
     76  CA        27.3860   73.7680    0.4410 C.3   158  THR158      0.1979
     77  C         28.6880   74.0570   -0.3110 C.2   158  THR158      0.2459
     78  O         29.5220   74.8230    0.1640 O.2   158  THR158     -0.2732
     79  CB        26.6490   75.0960    0.6220 C.3   158  THR158      0.1783
     80  OG1       25.7180   74.9780    1.7030 O.3   158  THR158     -0.2211
     81  CG2       25.9090   75.4660   -0.6390 C.3   158  THR158      0.0376
     82  N         28.8700   73.4560   -1.5020 N.am  159  PRO159     -0.2728
     83  CA        30.0940   73.6970   -2.2740 C.3   159  PRO159      0.1401
     84  C         30.2210   75.1640   -2.6860 C.2   159  PRO159      0.2269
     85  O         29.2210   75.8710   -2.8260 O.2   159  PRO159     -0.2865
     86  CB        29.9400   72.7690   -3.4830 C.3   159  PRO159      0.0296
     87  CG        28.4750   72.5570   -3.5970 C.3   159  PRO159      0.0237
     88  CD        28.0080   72.4720   -2.1750 C.3   159  PRO159      0.0939
     89  N         31.5230   76.3570  -17.6780 N.3   162  ILE162     -0.1231
     90  CA        30.2540   75.5670  -17.6570 C.3   162  ILE162      0.1692
     91  C         29.0680   76.5230  -17.5650 C.2   162  ILE162      0.2591
     92  O         28.3310   76.6950  -18.5250 O.2   162  ILE162     -0.2718
     93  CB        30.2160   74.5770  -16.4650 C.3   162  ILE162      0.0266
     94  CG1       31.5150   73.7570  -16.4040 C.3   162  ILE162      0.0019
     95  CG2       28.9930   73.6620  -16.5760 C.3   162  ILE162      0.0020
     96  CD1       31.8470   72.9720  -17.6750 C.3   162  ILE162      0.0001
     97  N         28.9290   77.1750  -16.4170 N.am  163  LYS163     -0.1980
     98  CA        27.8610   78.1390  -16.1770 C.3   163  LYS163      0.1596
     99  C         27.8460   79.1930  -17.2820 C.2   163  LYS163      0.2287
    100  O         26.7960   79.5850  -17.7640 O.2   163  LYS163     -0.2864
    101  CB        28.0920   78.8020  -14.8150 C.3   163  LYS163      0.0298
    102  CG        27.1610   79.9520  -14.4690 C.3   163  LYS163      0.0038
    103  CD        27.9590   81.2180  -14.1600 C.3   163  LYS163      0.0206
    104  CE        27.1170   82.2560  -13.4350 C.3   163  LYS163      0.1093
    105  NZ        26.7760   81.8240  -12.0440 N.3   163  LYS163     -0.1314
    106  N         26.7420   77.4080  -20.7540 N.3   166  PHE166     -0.1241
    107  CA        25.4500   76.7490  -20.8320 C.3   166  PHE166      0.1605
    108  C         24.3020   77.7590  -20.8510 C.2   166  PHE166      0.2264
    109  O         24.4200   78.8630  -20.3270 O.2   166  PHE166     -0.2867
    110  CB        25.3060   75.8060  -19.6290 C.3   166  PHE166      0.0534
    111  CG        24.2170   74.7820  -19.7680 C.ar  166  PHE166     -0.0203
    112  CD1       24.3860   73.6790  -20.5920 C.ar  166  PHE166     -0.0042
    113  CD2       23.0290   74.9090  -19.0520 C.ar  166  PHE166     -0.0042
    114  CE1       23.3900   72.7120  -20.6980 C.ar  166  PHE166     -0.0003
    115  CE2       22.0220   73.9510  -19.1500 C.ar  166  PHE166     -0.0003
    116  CZ        22.2020   72.8520  -19.9720 C.ar  166  PHE166     -0.0000
    117  N         20.0960   77.7780  -20.1730 N.3   168  LEU168     -0.1245
    118  CA        19.0160   76.9890  -19.6090 C.3   168  LEU168      0.1561
    119  C         17.7850   76.9750  -20.4860 C.2   168  LEU168      0.2260
    120  O         17.5170   77.9350  -21.2180 O.2   168  LEU168     -0.2867
    121  CB        18.6060   77.5300  -18.2410 C.3   168  LEU168      0.0270
    122  CG        19.2290   77.0040  -16.9510 C.3   168  LEU168      0.0019
    123  CD1       18.4980   77.6760  -15.7910 C.3   168  LEU168      0.0001
    124  CD2       19.0920   75.4870  -16.8510 C.3   168  LEU168      0.0001
    125  N         28.1020   66.1610    0.5180 N.3   239  HIS239     -0.1241
    126  CA        27.4290   66.7650   -0.6270 C.3   239  HIS239      0.1621
    127  C         27.6850   65.9930   -1.9190 C.2   239  HIS239      0.2264
    128  O         27.8610   66.6020   -2.9760 O.2   239  HIS239     -0.2867
    129  CB        27.8750   68.2240   -0.7790 C.3   239  HIS239      0.0745
    130  CG        26.7920   69.1450   -1.2450 C.ar  239  HIS239      0.0817
    131  ND1       25.9880   69.8480   -0.3740 N.ar  239  HIS239     -0.2268
    132  CD2       26.3940   69.5030   -2.4880 C.ar  239  HIS239      0.1154
    133  CE1       25.1480   70.6020   -1.0560 C.ar  239  HIS239      0.1986
    134  NE2       25.3720   70.4100   -2.3430 N.ar  239  HIS239     -0.2212
    135  N         31.1050   66.6970   -3.6550 N.3   242  ARG242     -0.1245
    136  CA        31.2160   67.8840   -4.4970 C.3   242  ARG242      0.1563
    137  C         31.6910   69.1360   -3.7600 C.2   242  ARG242      0.2260
    138  O         31.8760   70.1820   -4.3750 O.2   242  ARG242     -0.2867
    139  CB        29.8660   68.1840   -5.1420 C.3   242  ARG242      0.0307
    140  CG        29.3650   67.1040   -6.0810 C.3   242  ARG242      0.0489
    141  CD        27.8390   67.1300   -6.2090 C.3   242  ARG242      0.2205
    142  NE        27.3160   68.1410   -7.1280 N.pl3 242  ARG242     -0.0865
    143  CZ        27.4560   68.1160   -8.4560 C.cat 242  ARG242      0.5346
    144  NH1       28.1320   67.1400   -9.0490 N.pl3 242  ARG242      0.1354
    145  NH2       26.8240   69.0120   -9.2040 N.pl3 242  ARG242      0.1354
@<TRIPOS>BOND
     1     8     7    1
     2     7     6    1
     3     6     5    1
     4   120   119    2
     5     1     2    1
     6   108   107    1
     7   108   109    2
     8   107   106    1
     9   107   110    1
    10   114   112   ar
    11   114   116   ar
    12   112   111   ar
    13     5     2    1
    14   119   118    1
    15   117   118    1
    16     2     3    1
    17   116   115   ar
    18   111   110    1
    19   111   113   ar
    20   118   121    1
    21    15    13    1
    22     9     3   am
    23     9    10    1
    24   115   113   ar
    25     3     4    2
    26    13    10    1
    27    13    14    1
    28    92    91    2
    29   121   122    1
    30    10    11    1
    31   100    99    2
    32    44    43    2
    33    89    90    1
    34    96    94    1
    35    90    91    1
    36    90    93    1
    37    91    97   am
    38    11    12    2
    39    99    98    1
    40   122   124    1
    41   122   123    1
    42    46    47    1
    43    46    45    1
    44    43    42    1
    45    95    93    1
    46    93    94    1
    47    97    98    1
    48    42    45    1
    49    42    41    1
    50    47    48    1
    51    98   101    1
    52    16    17    1
    53   101   102    1
    54    20    17    1
    55    20    21    1
    56   102   103    1
    57   103   104    1
    58    17    18    1
    59   104   105    1
    60    21    23   ar
    61    21    22   ar
    62    23    25   ar
    63    18    19    2
    64    40    39    1
    65    36    35    2
    66    22    24   ar
    67    25    26   ar
    68    39    38    1
    69    37    38    1
    70    37    34    1
    71    35    34    1
    72    24    26   ar
    73    26    27    1
    74    34    33    1
    75    31    30    2
    76    33    30   am
    77   145   143    1
    78   144   143    1
    79    30    29    1
    80   143   142    2
    81    52    51    2
    82    29    32    1
    83    29    28    1
    84   142   141    1
    85    51    50    1
    86    53    50    1
    87    53    54    1
    88   141   140    1
    89   140   139    1
    90    50    49    1
    91    54    55   ar
    92    54    56   ar
    93    55    57   ar
    94   139   136    1
    95    57    58   ar
    96    56    59   ar
    97    56    58   ar
    98    59    61   ar
    99    58    60   ar
   100   136   137    1
   101   136   135    1
   102   138   137    2
   103    61    62   ar
   104    60    62   ar
   105    87    86    1
   106    87    88    1
   107    86    83    1
   108   128   127    2
   109    85    84    2
   110    84    83    1
   111   132   134   ar
   112   132   130   ar
   113   134   133   ar
   114    83    82    1
   115    88    82    1
   116    72    70   ar
   117    72    73   ar
   118   127   126    1
   119    74    73    1
   120    82    77   am
   121    70    68   ar
   122    73    71   ar
   123   130   129    1
   124   130   131   ar
   125   133   131   ar
   126   129   126    1
   127    81    79    1
   128   126   125    1
   129    77    78    2
   130    77    76    1
   131    68    67    1
   132    68    69   ar
   133    71    69   ar
   134    76    79    1
   135    76    75    1
   136    67    64    1
   137    79    80    1
   138    64    63    1
   139    64    65    1
   140    66    65    2
