@<TRIPOS>MOLECULE
tmp/1alnA00.pdb
 111 108 0 0 0
SMALL
GASTEIGER

@<TRIPOS>ATOM
      1  N         36.8840   55.7040   16.1490 N.3    69  SER69      -0.1217
      2  CA        36.0410   54.6100   16.5800 C.3    69  SER69       0.1889
      3  C         36.5810   53.7260   17.6680 C.2    69  SER69       0.2288
      4  O         35.8060   53.1500   18.4120 O.2    69  SER69      -0.2866
      5  CB        35.7190   53.7160   15.4060 C.3    69  SER69       0.2089
      6  OG        36.9170   53.1660   14.8690 O.3    69  SER69      -0.2183
      7  N         37.6130   51.0010   17.0820 N.3    71  PHE71      -0.1241
      8  CA        37.0770   49.7600   16.6030 C.3    71  PHE71       0.1605
      9  C         38.1300   49.2720   15.6170 C.2    71  PHE71       0.2264
     10  O         38.1590   49.6480   14.4440 O.2    71  PHE71      -0.2867
     11  CB        35.7380   50.0550   15.9440 C.3    71  PHE71       0.0534
     12  CG        34.9370   48.8530   15.4720 C.ar   71  PHE71      -0.0203
     13  CD1       34.2480   48.0740   16.3800 C.ar   71  PHE71      -0.0042
     14  CD2       34.9000   48.5590   14.1300 C.ar   71  PHE71      -0.0042
     15  CE1       33.5150   46.9930   15.9350 C.ar   71  PHE71      -0.0003
     16  CE2       34.1670   47.4800   13.6920 C.ar   71  PHE71      -0.0003
     17  CZ        33.4730   46.6960   14.5890 C.ar   71  PHE71      -0.0000
     18  N         39.8220   46.6570   13.2100 N.3    73  VAL73      -0.1245
     19  CA        39.4240   45.5500   12.3700 C.3    73  VAL73       0.1561
     20  C         40.6440   45.1160   11.5710 C.2    73  VAL73       0.2260
     21  O         41.3260   45.9490   10.9610 O.2    73  VAL73      -0.2867
     22  CB        38.3050   45.9680   11.3760 C.3    73  VAL73       0.0252
     23  CG1       37.8120   44.7570   10.5930 C.3    73  VAL73       0.0019
     24  CG2       37.1130   46.5300   12.1270 C.3    73  VAL73       0.0019
     25  N         42.1190   48.8940    9.3510 N.3    89  ASN89      -0.1240
     26  CA        41.4470   50.1500    9.0350 C.3    89  ASN89       0.1653
     27  C         42.1500   51.3690    9.5940 C.2    89  ASN89       0.2266
     28  O         42.7600   51.3290   10.6630 O.2    89  ASN89      -0.2867
     29  CB        40.0000   50.1270    9.5600 C.3    89  ASN89       0.1155
     30  CG        39.8350   49.7950   11.0350 C.2    89  ASN89       0.2627
     31  OD1       40.4770   48.8820   11.5430 O.2    89  ASN89      -0.2716
     32  ND2       38.9890   50.4350   11.8240 N.am   89  ASN89      -0.0877
     33  N         41.7160   55.7120   10.3560 N.3    91  GLU91      -0.1245
     34  CA        40.8630   56.8960   10.4130 C.3    91  GLU91       0.1567
     35  C         41.7400   58.1020   10.6670 C.2    91  GLU91       0.2260
     36  O         42.6040   58.0780   11.5530 O.2    91  GLU91      -0.2867
     37  CB        39.8760   56.8370   11.5490 C.3    91  GLU91       0.0388
     38  CG        39.0520   55.5890   11.4630 C.3    91  GLU91       0.1160
     39  CD        38.4410   55.1510   12.7600 C.2    91  GLU91       0.3649
     40  OE1       38.7390   55.6970   13.8160 O.co2  91  GLU91      -0.2457
     41  OE2       37.6430   54.2350   12.6920 O.co2  91  GLU91      -0.2457
     42  N         38.6370   57.7370    5.2200 N.3   100  THR100     -0.1203
     43  CA        38.7870   56.4980    5.9580 C.3   100  THR100      0.1994
     44  C         39.2000   55.3380    5.0700 C.2   100  THR100      0.2618
     45  O         38.8150   55.3290    3.8920 O.2   100  THR100     -0.2717
     46  CB        37.4590   56.1970    6.6220 C.3   100  THR100      0.1784
     47  OG1       37.1090   57.3860    7.3080 O.3   100  THR100     -0.2211
     48  CG2       37.5080   55.0460    7.6200 C.3   100  THR100      0.0376
     49  N         40.0420   54.3990    5.5420 N.am  101  VAL101     -0.1965
     50  CA        40.2780   53.2270    4.7190 C.3   101  VAL101      0.1727
     51  C         39.7830   52.0910    5.6030 C.2   101  VAL101      0.2616
     52  O         39.8680   52.0820    6.8330 O.2   101  VAL101     -0.2715
     53  CB        41.8060   53.0050    4.2560 C.3   101  VAL101      0.0290
     54  CG1       42.6210   54.2750    4.2960 C.3   101  VAL101      0.0023
     55  CG2       42.4720   51.9980    5.1340 C.3   101  VAL101      0.0023
     56  N         39.1200   51.1330    4.9720 N.am  102  HIS102     -0.1959
     57  CA        38.6170   49.9600    5.6780 C.3   102  HIS102      0.1787
     58  C         39.6520   48.8680    5.6440 C.2   102  HIS102      0.2620
     59  O         40.4660   48.7940    4.7160 O.2   102  HIS102     -0.2715
     60  CB        37.3370   49.5170    5.0160 C.3   102  HIS102      0.0785
     61  CG        36.1660   50.4510    5.2680 C.ar  102  HIS102      0.0821
     62  ND1       35.1120   50.1990    6.0480 N.ar  102  HIS102     -0.2267
     63  CD2       36.0230   51.7290    4.7910 C.ar  102  HIS102      0.1154
     64  CE1       34.3360   51.2520    6.0010 C.ar  102  HIS102      0.1986
     65  NE2       34.8710   52.1690    5.2570 N.ar  102  HIS102     -0.2212
     66  N         39.5760   47.9350    6.6170 N.am  103  ALA103     -0.1963
     67  CA        40.5240   46.8350    6.6720 C.3   103  ALA103      0.1728
     68  C         40.6020   46.0500    5.4040 C.2   103  ALA103      0.2616
     69  O         41.6820   45.7960    4.8980 O.2   103  ALA103     -0.2715
     70  CB        40.1840   45.8920    7.8040 C.3   103  ALA103      0.0334
     71  N         39.4760   45.8280    4.7240 N.am  104  GLU104     -0.1977
     72  CA        39.4600   45.1160    3.4660 C.3   104  GLU104      0.1602
     73  C         40.1520   45.8930    2.3740 C.2   104  GLU104      0.2287
     74  O         40.8750   45.3200    1.5380 O.2   104  GLU104     -0.2864
     75  CB        38.0550   44.8260    2.9780 C.3   104  GLU104      0.0415
     76  CG        37.2230   43.9990    3.9230 C.3   104  GLU104      0.1163
     77  CD        36.4130   44.7680    4.9630 C.2   104  GLU104      0.3649
     78  OE1       36.9570   45.4800    5.8070 O.co2 104  GLU104     -0.2457
     79  OE2       35.1990   44.6210    4.9340 O.co2 104  GLU104     -0.2457
     80  N         35.2790   41.0920   11.0480 N.3   126  TYR126     -0.1227
     81  CA        33.9530   41.6360   11.2220 C.3   126  TYR126      0.1736
     82  C         33.3760   41.6080    9.8260 C.2   126  TYR126      0.2596
     83  O         34.1010   41.7800    8.8340 O.2   126  TYR126     -0.2718
     84  CB        33.9930   43.0600   11.7190 C.3   126  TYR126      0.0548
     85  CG        33.1300   43.1890   12.9410 C.ar  126  TYR126     -0.0200
     86  CD1       33.6710   42.8970   14.1730 C.ar  126  TYR126     -0.0009
     87  CD2       31.7940   43.5590   12.8050 C.ar  126  TYR126     -0.0009
     88  CE1       32.8590   42.9750   15.2880 C.ar  126  TYR126      0.0417
     89  CE2       30.9750   43.6410   13.9150 C.ar  126  TYR126      0.0417
     90  CZ        31.5170   43.3460   15.1480 C.ar  126  TYR126      0.1957
     91  OH        30.6920   43.4130   16.2620 O.3   126  TYR126     -0.2866
     92  N         32.0670   41.3970    9.7250 N.am  127  THR127     -0.1939
     93  CA        31.4010   41.3270    8.4470 C.3   127  THR127      0.2013
     94  C         31.6250   42.5890    7.6000 C.2   127  THR127      0.2484
     95  O         31.6230   43.7300    8.0940 O.2   127  THR127     -0.2729
     96  CB        29.9130   41.0740    8.7310 C.3   127  THR127      0.1807
     97  OG1       29.4040   40.6960    7.4670 O.3   127  THR127     -0.2208
     98  CG2       29.1680   42.2390    9.3870 C.3   127  THR127      0.0379
     99  N         31.8890   42.4580    6.3110 N.am  128  PRO128     -0.2715
    100  CA        32.1330   43.5910    5.4500 C.3   128  PRO128      0.1536
    101  C         30.9660   44.5810    5.3700 C.2   128  PRO128      0.2598
    102  O         29.7920   44.2170    5.3020 O.2   128  PRO128     -0.2715
    103  CB        32.4650   43.0020    4.1100 C.3   128  PRO128      0.0310
    104  CG        32.6640   41.5400    4.4360 C.3   128  PRO128      0.0237
    105  CD        31.7140   41.2420    5.5470 C.3   128  PRO128      0.0939
    106  N         31.3180   45.8720    5.2800 N.am  129  CYS129     -0.1968
    107  CA        30.3140   46.8780    5.1190 C.3   129  CYS129      0.1712
    108  C         29.9560   46.8400    3.6400 C.2   129  CYS129      0.2296
    109  O         30.7690   46.3510    2.8180 O.2   129  CYS129     -0.2864
    110  CB        30.8530   48.2680    5.5110 C.3   129  CYS129      0.0983
    111  SG        31.9870   49.0390    4.3360 S.3   129  CYS129     -0.0798
@<TRIPOS>BOND
     1    74    73    2
     2    73    72    1
     3   109   108    2
     4    75    72    1
     5    75    76    1
     6    72    71    1
     7   108   107    1
     8    45    44    2
     9    76    77    1
    10   103   104    1
    11   103   100    1
    12    53    54    1
    13    53    50    1
    14    53    55    1
    15   111   110    1
    16   104   105    1
    17    59    58    2
    18    50    49    1
    19    50    51    1
    20    71    68   am
    21    63    65   ar
    22    63    61   ar
    23    69    68    2
    24    79    77   ar
    25    77    78   ar
    26    56    51   am
    27    56    57    1
    28    60    61    1
    29    60    57    1
    30    44    49   am
    31    44    43    1
    32   107   106    1
    33   107   110    1
    34    42    43    1
    35    65    64   ar
    36    61    62   ar
    37   106   101   am
    38   102   101    2
    39   101   100    1
    40    68    67    1
    41   100    99    1
    42   105    99    1
    43    51    52    2
    44    58    57    1
    45    58    66   am
    46    43    46    1
    47    64    62   ar
    48    99    94   am
    49    66    67    1
    50    46    47    1
    51    46    48    1
    52    67    70    1
    53    97    96    1
    54    94    95    2
    55    94    93    1
    56    93    96    1
    57    93    92    1
    58    96    98    1
    59    83    82    2
    60    26    25    1
    61    26    29    1
    62    26    27    1
    63    29    30    1
    64    27    28    2
    65    92    82   am
    66    82    81    1
    67    33    34    1
    68    34    35    1
    69    34    37    1
    70    23    22    1
    71    35    36    2
    72    21    20    2
    73    30    31    2
    74    30    32   am
    75    80    81    1
    76    81    84    1
    77    22    24    1
    78    22    19    1
    79    38    37    1
    80    38    39    1
    81    20    19    1
    82    84    85    1
    83    19    18    1
    84    41    39   ar
    85    39    40   ar
    86    87    85   ar
    87    87    89   ar
    88    85    86   ar
    89    16    14   ar
    90    16    17   ar
    91    89    90   ar
    92    14    12   ar
    93    86    88   ar
    94    10     9    2
    95    17    15   ar
    96     6     5    1
    97    90    88   ar
    98    90    91    1
    99     5     2    1
   100    12    11    1
   101    12    13   ar
   102     9     8    1
   103    15    13   ar
   104    11     8    1
   105     1     2    1
   106     2     3    1
   107     8     7    1
   108     3     4    2
