@<TRIPOS>MOLECULE
tmp/1alwB00.pdb
 113 109 0 0 0
SMALL
GASTEIGER

@<TRIPOS>ATOM
      1  N        -10.5370  -39.9380   61.6170 N.3    29  LEU29      -0.1245
      2  CA       -11.1240  -39.1180   60.5570 C.3    29  LEU29       0.1561
      3  C        -12.0200  -39.9240   59.7180 C.2    29  LEU29       0.2260
      4  O        -13.0040  -39.4140   59.2010 O.2    29  LEU29      -0.2867
      5  CB       -10.0140  -38.5030   59.6990 C.3    29  LEU29       0.0270
      6  CG        -9.6870  -37.0150   59.6140 C.3    29  LEU29       0.0019
      7  CD1      -10.0620  -36.2400   60.8440 C.3    29  LEU29       0.0001
      8  CD2       -8.2100  -36.9220   59.3430 C.3    29  LEU29       0.0001
      9  N        -15.3040  -40.7160   61.5940 N.3    32  VAL32      -0.1231
     10  CA       -16.2300  -39.6120   61.6370 C.3    32  VAL32       0.1692
     11  C        -16.9280  -39.3110   60.3860 C.2    32  VAL32       0.2591
     12  O        -18.1220  -39.1750   60.4180 O.2    32  VAL32      -0.2718
     13  CB       -15.5850  -38.3350   62.1900 C.3    32  VAL32       0.0266
     14  CG1      -16.6020  -37.2170   62.2540 C.3    32  VAL32       0.0020
     15  CG2      -15.0380  -38.5730   63.5680 C.3    32  VAL32       0.0020
     16  N        -16.2420  -39.1710   59.2580 N.am   33  VAL33      -0.1980
     17  CA       -16.9620  -38.8690   58.0200 C.3    33  VAL33       0.1595
     18  C        -17.9920  -39.8690   57.7210 C.2    33  VAL33       0.2287
     19  O        -18.9650  -39.5810   57.0370 O.2    33  VAL33      -0.2864
     20  CB       -16.0680  -38.7620   56.7340 C.3    33  VAL33       0.0276
     21  CG1      -15.1150  -37.6300   56.8270 C.3    33  VAL33       0.0022
     22  CG2      -15.3480  -40.0560   56.4410 C.3    33  VAL33       0.0022
     23  N        -20.2800  -41.0460   59.4510 N.3    35  ARG35      -0.1231
     24  CA       -21.5890  -40.5990   59.9010 C.3    35  ARG35       0.1694
     25  C        -22.0120  -39.2860   59.3670 C.2    35  ARG35       0.2592
     26  O        -22.8950  -38.6300   59.9110 O.2    35  ARG35      -0.2718
     27  CB       -21.7280  -40.6650   61.4320 C.3    35  ARG35       0.0321
     28  CG       -20.4910  -40.3400   62.3020 C.3    35  ARG35       0.0489
     29  CD       -20.8770  -40.4840   63.8100 C.3    35  ARG35       0.2205
     30  NE       -19.7420  -40.7160   64.7210 N.pl3  35  ARG35      -0.0865
     31  CZ       -19.0160  -39.7590   65.3040 C.cat  35  ARG35       0.5346
     32  NH1      -19.2880  -38.4780   65.0800 N.pl3  35  ARG35       0.1354
     33  NH2      -18.0110  -40.0840   66.1200 N.pl3  35  ARG35       0.1354
     34  N        -21.4080  -38.8780   58.2560 N.am   36  HIS36      -0.1976
     35  CA       -21.7450  -37.6130   57.5960 C.3    36  HIS36       0.1656
     36  C        -22.0080  -37.8800   56.1810 C.2    36  HIS36       0.2291
     37  O        -21.1110  -37.7790   55.3570 O.2    36  HIS36      -0.2864
     38  CB       -20.6010  -36.6080   57.7000 C.3    36  HIS36       0.0771
     39  CG       -20.4910  -35.9670   59.0400 C.ar   36  HIS36       0.0820
     40  ND1      -20.9800  -34.7080   59.2970 N.ar   36  HIS36      -0.2267
     41  CD2      -20.0160  -36.4360   60.2150 C.ar   36  HIS36       0.1154
     42  CE1      -20.8240  -34.4320   60.5760 C.ar   36  HIS36       0.1986
     43  NE2      -20.2410  -35.4630   61.1560 N.ar   36  HIS36      -0.2212
     44  N        -21.0400  -35.4770   53.1270 N.3    39  LEU39      -0.1245
     45  CA       -19.6470  -35.2880   52.7670 C.3    39  LEU39       0.1561
     46  C        -19.2350  -36.4140   51.9080 C.2    39  LEU39       0.2260
     47  O        -19.2910  -37.5620   52.3380 O.2    39  LEU39      -0.2867
     48  CB       -18.7950  -35.2730   54.0410 C.3    39  LEU39       0.0270
     49  CG       -18.4640  -33.9660   54.7580 C.3    39  LEU39       0.0019
     50  CD1      -19.4870  -32.9230   54.5230 C.3    39  LEU39       0.0001
     51  CD2      -18.2910  -34.1990   56.2170 C.3    39  LEU39       0.0001
     52  N         -9.8570  -41.0360   53.8400 N.3    44  PHE44      -0.1241
     53  CA        -8.6010  -40.3780   54.1510 C.3    44  PHE44       0.1605
     54  C         -7.5780  -41.4280   54.0830 C.2    44  PHE44       0.2264
     55  O         -7.5850  -42.3600   54.8870 O.2    44  PHE44      -0.2867
     56  CB        -8.6230  -39.7610   55.5390 C.3    44  PHE44       0.0534
     57  CG        -9.2840  -38.4200   55.5930 C.ar   44  PHE44      -0.0203
     58  CD1      -10.6610  -38.3120   55.8200 C.ar   44  PHE44      -0.0042
     59  CD2       -8.5290  -37.2540   55.4700 C.ar   44  PHE44      -0.0042
     60  CE1      -11.2850  -37.0640   55.9320 C.ar   44  PHE44      -0.0003
     61  CE2       -9.1370  -35.9920   55.5810 C.ar   44  PHE44      -0.0003
     62  CZ       -10.5220  -35.9010   55.8140 C.ar   44  PHE44      -0.0000
     63  N         -7.5310  -30.3940   64.9950 N.3    73  TRP73      -0.1241
     64  CA        -8.9480  -30.7220   65.1870 C.3    73  TRP73       0.1605
     65  C         -9.8710  -29.5690   65.1470 C.2    73  TRP73       0.2264
     66  O        -10.9180  -29.6480   64.5080 O.2    73  TRP73      -0.2867
     67  CB        -9.1500  -31.5420   66.4790 C.3    73  TRP73       0.0550
     68  CG       -10.4040  -32.4060   66.5020 C.ar   73  TRP73       0.0003
     69  CD1      -11.4870  -32.2560   67.3200 C.ar   73  TRP73       0.0946
     70  CD2      -10.6910  -33.5370   65.6710 C.ar   73  TRP73       0.0152
     71  NE1      -12.4340  -33.2170   67.0470 N.ar   73  TRP73      -0.2442
     72  CE2      -11.9640  -34.0170   66.0420 C.ar   73  TRP73       0.0810
     73  CE3       -9.9990  -34.1890   64.6550 C.ar   73  TRP73       0.0012
     74  CZ2      -12.5550  -35.1130   65.4320 C.ar   73  TRP73       0.0191
     75  CZ3      -10.5840  -35.2740   64.0490 C.ar   73  TRP73       0.0001
     76  CH2      -11.8540  -35.7280   64.4410 C.ar   73  TRP73       0.0015
     77  N        -10.2670  -28.3880   61.6020 N.3    76  ILE76      -0.1231
     78  CA       -11.1010  -29.3240   60.8770 C.3    76  ILE76       0.1692
     79  C        -12.5320  -29.1800   61.2510 C.2    76  ILE76       0.2591
     80  O        -13.3810  -29.2700   60.3810 O.2    76  ILE76      -0.2718
     81  CB       -10.6430  -30.7850   61.0930 C.3    76  ILE76       0.0266
     82  CG1       -9.2190  -30.9720   60.5520 C.3    76  ILE76       0.0019
     83  CG2      -11.6000  -31.7400   60.4050 C.3    76  ILE76       0.0020
     84  CD1       -8.6260  -32.3430   60.7390 C.3    76  ILE76       0.0001
     85  N        -12.8540  -28.9400   62.5330 N.am   77  LYS77      -0.1980
     86  CA       -14.2680  -28.7780   62.9480 C.3    77  LYS77       0.1596
     87  C        -14.9240  -27.6050   62.3210 C.2    77  LYS77       0.2287
     88  O        -16.1000  -27.6380   61.9640 O.2    77  LYS77      -0.2864
     89  CB       -14.4110  -28.6650   64.4620 C.3    77  LYS77       0.0298
     90  CG       -14.3750  -29.9910   65.1930 C.3    77  LYS77       0.0038
     91  CD       -15.3460  -29.9960   66.3900 C.3    77  LYS77       0.0206
     92  CE       -14.6220  -30.0240   67.7350 C.3    77  LYS77       0.1093
     93  NZ       -13.6780  -28.8690   67.8590 N.3    77  LYS77      -0.1314
     94  N        -15.1400  -28.2290   58.2140 N.3    80  GLN80      -0.1245
     95  CA       -16.1950  -29.1060   57.7220 C.3    80  GLN80       0.1566
     96  C        -17.4560  -28.3580   57.6120 C.2    80  GLN80       0.2260
     97  O        -18.2500  -28.6010   56.7130 O.2    80  GLN80      -0.2867
     98  CB       -16.3640  -30.3770   58.5690 C.3    80  GLN80       0.0367
     99  CG       -16.6950  -30.1880   60.0320 C.3    80  GLN80       0.0905
    100  CD       -18.1790  -29.9610   60.3130 C.2    80  GLN80       0.2608
    101  OE1      -19.0520  -30.5660   59.6850 O.2    80  GLN80      -0.2717
    102  NE2      -18.4630  -29.0980   61.2780 N.am   80  GLN80      -0.0878
    103  N        -14.1950  -34.2710   50.0290 N.3   131  PHE131     -0.1241
    104  CA       -13.8230  -33.9170   51.4110 C.3   131  PHE131      0.1605
    105  C        -12.4270  -34.0860   51.9250 C.2   131  PHE131      0.2264
    106  O        -11.9030  -33.1810   52.5440 O.2   131  PHE131     -0.2867
    107  CB       -14.8280  -34.4960   52.3990 C.3   131  PHE131      0.0534
    108  CG       -14.7040  -33.9320   53.7740 C.ar  131  PHE131     -0.0203
    109  CD1      -15.0220  -32.6000   54.0190 C.ar  131  PHE131     -0.0042
    110  CD2      -14.2070  -34.7080   54.8130 C.ar  131  PHE131     -0.0042
    111  CE1      -14.8390  -32.0430   55.2870 C.ar  131  PHE131     -0.0003
    112  CE2      -14.0180  -34.1630   56.0870 C.ar  131  PHE131     -0.0003
    113  CZ       -14.3320  -32.8340   56.3240 C.ar  131  PHE131     -0.0000
@<TRIPOS>BOND
     1   103   104    1
     2   104   105    1
     3   104   107    1
     4    46    47    2
     5    46    45    1
     6   105   106    2
     7   107   108    1
     8    45    44    1
     9    45    48    1
    10   108   109   ar
    11   108   110   ar
    12    52    53    1
    13   109   111   ar
    14    48    49    1
    15    54    53    1
    16    54    55    2
    17    53    56    1
    18    50    49    1
    19    49    51    1
    20   110   112   ar
    21   111   113   ar
    22    37    36    2
    23    59    61   ar
    24    59    57   ar
    25    56    57    1
    26    61    62   ar
    27    57    58   ar
    28    62    60   ar
    29    58    60   ar
    30   112   113   ar
    31    36    35    1
    32    22    20    1
    33    97    96    2
    34    20    21    1
    35    20    17    1
    36    19    18    2
    37    35    38    1
    38    35    34    1
    39    96    95    1
    40    38    39    1
    41    18    17    1
    42    95    94    1
    43    95    98    1
    44    17    16    1
    45    34    25   am
    46    98    99    1
    47    39    40   ar
    48    39    41   ar
    49     4     3    2
    50    16    11   am
    51    40    42   ar
    52     8     6    1
    53    25    24    1
    54    25    26    2
    55    23    24    1
    56     6     5    1
    57     6     7    1
    58   101   100    2
    59     5     2    1
    60     3     2    1
    61    24    27    1
    62    99   100    1
    63    41    43   ar
    64   100   102   am
    65    80    79    2
    66    11    12    2
    67    11    10    1
    68    83    81    1
    69    82    84    1
    70    82    81    1
    71     2     1    1
    72    42    43   ar
    73    78    81    1
    74    78    79    1
    75    78    77    1
    76    79    85   am
    77    27    28    1
    78     9    10    1
    79    10    13    1
    80    88    87    2
    81    13    14    1
    82    13    15    1
    83    28    29    1
    84    87    86    1
    85    85    86    1
    86    86    89    1
    87    29    30    1
    88    75    76   ar
    89    75    73   ar
    90    76    74   ar
    91    89    90    1
    92    66    65    2
    93    73    70   ar
    94    30    31    2
    95    63    64    1
    96    32    31    1
    97    65    64    1
    98    64    67    1
    99    90    91    1
   100    31    33    1
   101    74    72   ar
   102    70    72   ar
   103    70    68   ar
   104    72    71   ar
   105    91    92    1
   106    67    68    1
   107    68    69   ar
   108    71    69   ar
   109    92    93    1
