@<TRIPOS>MOLECULE
tmp/1amkA00.pdb
 93 87 0 0 0
SMALL
GASTEIGER

@<TRIPOS>ATOM
      1  N          8.9280    4.2580   12.9120 N.3    11  ASN11      -0.1240
      2  CA         8.0280    3.5030   12.0030 C.3    11  ASN11       0.1653
      3  C          6.6070    3.6390   12.5220 C.2    11  ASN11       0.2266
      4  O          6.2540    2.9600   13.4880 O.2    11  ASN11      -0.2867
      5  CB         8.3070    1.9930   11.9260 C.3    11  ASN11       0.1155
      6  CG         7.2190    1.1930   11.0380 C.2    11  ASN11       0.2627
      7  OD1        6.3240    1.7260   10.3120 O.2    11  ASN11      -0.2716
      8  ND2        7.3290   -0.1570   11.1620 N.am   11  ASN11      -0.0877
      9  N          3.9290    2.6810   11.3270 N.3    13  LYS13      -0.1245
     10  CA         3.0850    1.6070   10.8510 C.3    13  LYS13       0.1561
     11  C          1.8440    2.1560   10.1750 C.2    13  LYS13       0.2260
     12  O          1.8690    3.0910    9.3260 O.2    13  LYS13      -0.2867
     13  CB         2.7040    0.6710   12.0220 C.3    13  LYS13       0.0271
     14  CG         3.9100    0.1570   12.7660 C.3    13  LYS13       0.0035
     15  CD         3.7600   -1.1160   13.6680 C.3    13  LYS13       0.0206
     16  CE         4.9060   -2.0790   13.3790 C.3    13  LYS13       0.1093
     17  NZ         5.4840   -2.7370   14.6250 N.3    13  LYS13      -0.1314
     18  N          9.8780   -5.9440    6.4940 N.3    95  HIS95      -0.1241
     19  CA         9.5350   -5.7040    7.9000 C.3    95  HIS95       0.1621
     20  C          8.7080   -6.9520    8.2380 C.2    95  HIS95       0.2264
     21  O          7.9240   -7.4860    7.4290 O.2    95  HIS95      -0.2867
     22  CB         8.5980   -4.5070    8.1030 C.3    95  HIS95       0.0745
     23  CG         8.2750   -4.3150    9.5460 C.ar   95  HIS95       0.0817
     24  ND1        7.3230   -5.0760   10.1910 N.ar   95  HIS95      -0.2268
     25  CD2        8.8850   -3.5700   10.5020 C.ar   95  HIS95       0.1154
     26  CE1        7.3250   -4.7650   11.4750 C.ar   95  HIS95       0.1986
     27  NE2        8.2490   -3.8430   11.6870 N.ar   95  HIS95      -0.2212
     28  N         15.1420   -7.3800   14.2530 N.3   167  GLU167     -0.1245
     29  CA        13.9930   -7.2110   15.1030 C.3   167  GLU167      0.1567
     30  C         13.5080   -8.5920   15.5300 C.2   167  GLU167      0.2260
     31  O         12.8740   -9.2490   14.7370 O.2   167  GLU167     -0.2867
     32  CB        12.9860   -6.4170   14.2630 C.3   167  GLU167      0.0388
     33  CG        13.4110   -4.9120   14.2340 C.3   167  GLU167      0.1160
     34  CD        12.2270   -4.0510   13.8250 C.2   167  GLU167      0.3649
     35  OE1       11.4330   -4.4490   12.9080 O.co2 167  GLU167     -0.2457
     36  OE2       11.8990   -3.1120   14.5450 O.co2 167  GLU167     -0.2457
     37  N          8.6650   -7.5360   18.8740 N.3   172  ILE172     -0.1231
     38  CA         7.9710   -6.4230   18.2470 C.3   172  ILE172      0.1692
     39  C          6.5500   -6.1740   18.7930 C.2   172  ILE172      0.2592
     40  O          5.6720   -7.0810   18.6580 O.2   172  ILE172     -0.2718
     41  CB         7.8420   -6.7450   16.7480 C.3   172  ILE172      0.0266
     42  CG1        9.2030   -7.1290   16.1070 C.3   172  ILE172      0.0019
     43  CG2        6.8370   -5.7580   16.0550 C.3   172  ILE172      0.0020
     44  CD1        9.1930   -7.4560   14.5050 C.3   172  ILE172      0.0001
     45  N          6.3400   -4.9820   19.3610 N.am  173  GLY173     -0.1957
     46  CA         5.0510   -4.5750   19.9100 C.3   173  GLY173      0.1869
     47  C          4.6520   -5.4080   21.1300 C.2   173  GLY173      0.2309
     48  O          3.5010   -5.3250   21.5660 O.2   173  GLY173     -0.2863
     49  N         12.1980   -3.6340   18.4230 N.3   212  GLY212     -0.1210
     50  CA        11.3350   -4.6100   19.0860 C.3   212  GLY212      0.1956
     51  C         11.1440   -4.0660   20.5200 C.2   212  GLY212      0.2613
     52  O         12.0250   -4.2380   21.3740 O.2   212  GLY212     -0.2717
     53  N         10.0150   -3.4050   20.7990 N.am  213  SER213     -0.1938
     54  CA         9.7340   -2.8770   22.1390 C.3   213  SER213      0.2055
     55  C         10.7520   -1.9280   22.7990 C.2   213  SER213      0.2642
     56  O         10.8170   -1.7790   24.0210 O.2   213  SER213     -0.2714
     57  CB         9.4670   -4.0520   23.0950 C.3   213  SER213      0.2130
     58  OG         8.2780   -4.7750   22.7660 O.3   213  SER213     -0.2179
     59  N         11.5590   -1.2830   21.9710 N.am  214  VAL214     -0.1977
     60  CA        12.5910   -0.3360   22.3990 C.3   214  VAL214      0.1596
     61  C         11.9220    0.9110   22.8860 C.2   214  VAL214      0.2287
     62  O         11.0660    1.3590   22.1820 O.2   214  VAL214     -0.2864
     63  CB        13.3870    0.0650   21.1400 C.3   214  VAL214      0.0276
     64  CG1       14.3870    1.1270   21.5000 C.3   214  VAL214      0.0022
     65  CG2       14.1020   -1.2160   20.6370 C.3   214  VAL214      0.0022
     66  N         15.1350    0.8160   15.4500 N.3   232  LEU232     -0.1231
     67  CA        13.9950    0.9180   14.5110 C.3   232  LEU232      0.1693
     68  C         12.8550    0.8720   15.5390 C.2   232  LEU232      0.2592
     69  O         12.7000   -0.1080   16.2400 O.2   232  LEU232     -0.2718
     70  CB        13.9590   -0.2610   13.5050 C.3   232  LEU232      0.0284
     71  CG        12.8040   -0.1010   12.5280 C.3   232  LEU232      0.0019
     72  CD1       12.8570    1.2320   11.8040 C.3   232  LEU232      0.0001
     73  CD2       12.7280   -1.2800   11.5580 C.3   232  LEU232      0.0001
     74  N         12.1150    1.9650   15.6970 N.am  233  VAL233     -0.1966
     75  CA        11.0960    2.0970   16.7360 C.3   233  VAL233      0.1727
     76  C          9.6920    2.2470   16.1620 C.2   233  VAL233      0.2617
     77  O          9.4240    3.0470   15.2290 O.2   233  VAL233     -0.2715
     78  CB        11.4640    3.3280   17.6700 C.3   233  VAL233      0.0290
     79  CG1       10.5930    3.5200   18.9040 C.3   233  VAL233      0.0023
     80  CG2       12.8990    3.2960   18.0550 C.3   233  VAL233      0.0023
     81  N          8.8240    1.4580   16.7910 N.am  234  GLY234     -0.1940
     82  CA         7.4260    1.3890   16.4080 C.3   234  GLY234      0.2014
     83  C          6.5350    2.1350   17.3680 C.2   234  GLY234      0.2639
     84  O          6.4180    3.3810   17.2580 O.2   234  GLY234     -0.2714
     85  N          6.0180    1.4070   18.3560 N.am  235  GLY235     -0.1939
     86  CA         5.1380    2.1020   19.2680 C.3   235  GLY235      0.2014
     87  C          5.6200    3.4310   19.9340 C.2   235  GLY235      0.2638
     88  O          4.8380    4.3450   20.1220 O.2   235  GLY235     -0.2714
     89  N          6.8890    3.4870   20.3440 N.am  236  ALA236     -0.1977
     90  CA         7.4460    4.5800   21.0740 C.3   236  ALA236      0.1597
     91  C          7.6710    5.6810   20.0970 C.2   236  ALA236      0.2287
     92  O          8.0240    6.7720   20.5050 O.2   236  ALA236     -0.2864
     93  CB         8.7860    4.1830   21.7210 C.3   236  ALA236      0.0319
@<TRIPOS>BOND
     1    18    19    1
     2    21    20    2
     3    19    22    1
     4    19    20    1
     5    22    23    1
     6    12    11    2
     7    23    24   ar
     8    23    25   ar
     9    11    10    1
    10    24    26   ar
    11     7     6    2
    12    25    27   ar
    13    10     9    1
    14    10    13    1
    15     6     8   am
    16     6     5    1
    17    26    27   ar
    18    73    71    1
    19    72    71    1
    20     5     2    1
    21     2     3    1
    22     2     1    1
    23    13    14    1
    24     3     4    2
    25    71    70    1
    26    14    15    1
    27    35    34   ar
    28    16    15    1
    29    16    17    1
    30    70    67    1
    31    34    33    1
    32    34    36   ar
    33    33    32    1
    34    28    29    1
    35    32    29    1
    36    44    42    1
    37    67    66    1
    38    67    68    1
    39    31    30    2
    40    29    30    1
    41    77    76    2
    42    68    74   am
    43    68    69    2
    44    74    75    1
    45    43    41    1
    46    42    41    1
    47    76    75    1
    48    76    81   am
    49    82    81    1
    50    82    83    1
    51    75    78    1
    52    41    38    1
    53    84    83    2
    54    83    85   am
    55    78    80    1
    56    78    79    1
    57    38    39    1
    58    38    37    1
    59    85    86    1
    60    49    50    1
    61    40    39    2
    62    39    45   am
    63    50    51    1
    64    86    87    1
    65    45    46    1
    66    46    47    1
    67    87    88    2
    68    87    89   am
    69    91    92    2
    70    91    90    1
    71    89    90    1
    72    51    53   am
    73    51    52    2
    74    65    63    1
    75    53    54    1
    76    90    93    1
    77    47    48    2
    78    63    64    1
    79    63    60    1
    80    59    60    1
    81    59    55   am
    82    54    55    1
    83    54    57    1
    84    62    61    2
    85    60    61    1
    86    58    57    1
    87    55    56    2
