@<TRIPOS>MOLECULE
tmp/1amnA00.pdb
 175 175 0 0 0
SMALL
GASTEIGER

@<TRIPOS>ATOM
      1  N          0.4450   74.8390   65.4840 N.3    81  TRP81      -0.1241
      2  CA         0.0820   73.6110   64.8190 C.3    81  TRP81       0.1605
      3  C         -1.3570   73.1670   65.0300 C.2    81  TRP81       0.2264
      4  O         -1.7540   72.1110   64.5200 O.2    81  TRP81      -0.2867
      5  CB         1.0060   72.4830   65.2780 C.3    81  TRP81       0.0550
      6  CG         2.4570   72.8450   65.2280 C.ar   81  TRP81       0.0003
      7  CD1        3.2650   73.1290   66.2930 C.ar   81  TRP81       0.0946
      8  CD2        3.2550   73.0610   64.0530 C.ar   81  TRP81       0.0152
      9  NE1        4.5060   73.5260   65.8560 N.ar   81  TRP81      -0.2442
     10  CE2        4.5280   73.4980   64.4870 C.ar   81  TRP81       0.0810
     11  CE3        3.0100   72.9360   62.6770 C.ar   81  TRP81       0.0012
     12  CZ2        5.5590   73.8190   63.5970 C.ar   81  TRP81       0.0191
     13  CZ3        4.0380   73.2540   61.7920 C.ar   81  TRP81       0.0001
     14  CH2        5.2970   73.6930   62.2600 C.ar   81  TRP81       0.0015
     15  N          2.0070   67.7800   57.4040 N.3   114  GLY114     -0.1210
     16  CA         2.2650   66.6190   58.2350 C.3   114  GLY114      0.1956
     17  C          1.4220   66.5960   59.4970 C.2   114  GLY114      0.2612
     18  O          0.4920   67.3960   59.6340 O.2   114  GLY114     -0.2717
     19  N          1.7860   65.7060   60.4290 N.am  115  GLY115     -0.1942
     20  CA         1.0810   65.5540   61.7000 C.3   115  GLY115      0.2014
     21  C          0.9320   64.1070   62.1690 C.2   115  GLY115      0.2639
     22  O         -0.1100   63.7470   62.7170 O.2   115  GLY115     -0.2714
     23  N          1.9350   63.2680   61.9160 N.am  116  GLY116     -0.1954
     24  CA         1.8540   61.8790   62.3190 C.3   116  GLY116      0.1869
     25  C          0.6430   61.1380   61.7700 C.2   116  GLY116      0.2309
     26  O          0.2760   60.0740   62.2770 O.2   116  GLY116     -0.2863
     27  N         -2.1820   61.7800   62.2160 N.3   118  TYR118     -0.1227
     28  CA        -3.2980   61.9490   63.1740 C.3   118  TYR118      0.1736
     29  C         -3.7950   63.3940   63.2280 C.2   118  TYR118      0.2596
     30  O         -4.8480   63.6660   63.8000 O.2   118  TYR118     -0.2718
     31  CB        -2.9420   61.4490   64.6110 C.3   118  TYR118      0.0548
     32  CG        -1.9160   62.2770   65.3750 C.ar  118  TYR118     -0.0200
     33  CD1       -2.2750   63.4780   65.9890 C.ar  118  TYR118     -0.0009
     34  CD2       -0.5760   61.9260   65.3680 C.ar  118  TYR118     -0.0009
     35  CE1       -1.3320   64.3060   66.5490 C.ar  118  TYR118      0.0417
     36  CE2        0.3790   62.7490   65.9290 C.ar  118  TYR118      0.0417
     37  CZ        -0.0100   63.9460   66.5120 C.ar  118  TYR118      0.1957
     38  OH         0.9490   64.8000   67.0200 O.3   118  TYR118     -0.2866
     39  N         -3.0400   64.3210   62.6540 N.am  119  SER119     -0.1952
     40  CA        -3.4380   65.7280   62.6720 C.3   119  SER119      0.1924
     41  C         -2.9520   66.4380   61.4060 C.2   119  SER119      0.2314
     42  O         -2.2500   65.8340   60.5900 O.2   119  SER119     -0.2863
     43  CB        -2.8340   66.4220   63.9000 C.3   119  SER119      0.2116
     44  OG        -1.4170   66.2880   63.8930 O.3   119  SER119     -0.2180
     45  N          1.5290   77.9800   56.7580 N.3   127  TYR127     -0.1241
     46  CA         1.3580   77.3250   55.4780 C.3   127  TYR127      0.1605
     47  C          0.7990   78.2910   54.4550 C.2   127  TYR127      0.2264
     48  O          0.3040   77.8630   53.4140 O.2   127  TYR127     -0.2867
     49  CB         0.3960   76.1470   55.6300 C.3   127  TYR127      0.0534
     50  CG         0.8690   75.0120   56.5180 C.ar  127  TYR127     -0.0201
     51  CD1        2.2170   74.8570   56.8600 C.ar  127  TYR127     -0.0009
     52  CD2       -0.0370   74.0280   56.9500 C.ar  127  TYR127     -0.0009
     53  CE1        2.6380   73.7560   57.5930 C.ar  127  TYR127      0.0417
     54  CE2        0.3880   72.9200   57.6830 C.ar  127  TYR127      0.0417
     55  CZ         1.7120   72.7920   57.9950 C.ar  127  TYR127      0.1957
     56  OH         2.1190   71.6930   58.7070 O.3   127  TYR127     -0.2866
     57  N          6.1780   67.8020   54.5500 N.3   196  GLU196     -0.1231
     58  CA         7.0420   67.6540   55.7190 C.3   196  GLU196      0.1699
     59  C          6.4960   66.6260   56.7020 C.2   196  GLU196      0.2593
     60  O          5.2800   66.5700   56.9150 O.2   196  GLU196     -0.2718
     61  CB         7.1680   69.0110   56.4020 C.3   196  GLU196      0.0402
     62  CG         8.2050   69.1160   57.5200 C.3   196  GLU196      0.1161
     63  CD         7.6430   68.7960   58.8980 C.2   196  GLU196      0.3649
     64  OE1        6.4910   69.1820   59.2120 O.co2 196  GLU196     -0.2457
     65  OE2        8.3640   68.1320   59.6680 O.co2 196  GLU196     -0.2457
     66  N          7.3830   65.8110   57.2870 N.am  197  SER197     -0.1938
     67  CA         7.0110   64.7900   58.2830 C.3   197  SER197      0.2055
     68  C          6.1620   63.7040   57.6880 C.2   197  SER197      0.2642
     69  O          6.6850   62.8230   57.0250 O.2   197  SER197     -0.2714
     70  CB         6.2720   65.4010   59.4840 C.3   197  SER197      0.2130
     71  OG         5.9700   64.4390   60.4720 O.3   197  SER197     -0.2179
     72  N          4.8550   63.7420   57.9220 N.am  198  ALA198     -0.1977
     73  CA         3.9940   62.7150   57.3540 C.3   198  ALA198      0.1597
     74  C          3.7180   63.1680   55.9260 C.2   198  ALA198      0.2287
     75  O          3.4640   62.3600   55.0410 O.2   198  ALA198     -0.2864
     76  CB         2.7120   62.5830   58.1440 C.3   198  ALA198      0.0319
     77  N          7.1660   54.5690   61.4880 N.3   230  TRP230     -0.1241
     78  CA         5.8590   55.0100   61.9450 C.3   230  TRP230      0.1605
     79  C          4.9050   55.3350   60.8020 C.2   230  TRP230      0.2264
     80  O          3.7490   55.7380   61.0310 O.2   230  TRP230     -0.2867
     81  CB         6.0600   56.2620   62.7720 C.3   230  TRP230      0.0550
     82  CG         6.9770   57.2010   62.1070 C.ar  230  TRP230      0.0003
     83  CD1        8.3190   57.3230   62.3250 C.ar  230  TRP230      0.0946
     84  CD2        6.6410   58.1450   61.0890 C.ar  230  TRP230      0.0152
     85  NE1        8.8450   58.2900   61.5060 N.ar  230  TRP230     -0.2442
     86  CE2        7.8410   58.8110   60.7300 C.ar  230  TRP230      0.0810
     87  CE3        5.4500   58.4960   60.4360 C.ar  230  TRP230      0.0012
     88  CZ2        7.8820   59.8040   59.7400 C.ar  230  TRP230      0.0191
     89  CZ3        5.4910   59.4900   59.4500 C.ar  230  TRP230      0.0001
     90  CH2        6.6970   60.1240   59.1140 C.ar  230  TRP230      0.0015
     91  N          6.8620   58.4450   69.4400 N.3   285  PHE285     -0.1241
     92  CA         7.0080   58.6030   68.0000 C.3   285  PHE285      0.1605
     93  C          6.4150   57.4490   67.2260 C.2   285  PHE285      0.2264
     94  O          7.0580   56.8990   66.3290 O.2   285  PHE285     -0.2867
     95  CB         8.4700   58.7640   67.6030 C.3   285  PHE285      0.0534
     96  CG         8.6600   59.6320   66.4070 C.ar  285  PHE285     -0.0203
     97  CD1        7.7350   59.6160   65.3680 C.ar  285  PHE285     -0.0042
     98  CD2        9.7310   60.5280   66.3430 C.ar  285  PHE285     -0.0042
     99  CE1        7.8760   60.4850   64.2940 C.ar  285  PHE285     -0.0003
    100  CE2        9.8790   61.4040   65.2640 C.ar  285  PHE285     -0.0003
    101  CZ         8.9630   61.3850   64.2480 C.ar  285  PHE285     -0.0000
    102  N          2.3080   56.1440   65.8880 N.3   287  PHE287     -0.1241
    103  CA         0.9190   56.5600   65.8360 C.3   287  PHE287      0.1605
    104  C         -0.0430   55.4400   65.5250 C.2   287  PHE287      0.2264
    105  O          0.3460   54.3990   65.0080 O.2   287  PHE287     -0.2867
    106  CB         0.8020   57.7220   64.8730 C.3   287  PHE287      0.0534
    107  CG         1.9190   58.7210   65.0250 C.ar  287  PHE287     -0.0203
    108  CD1        1.8580   59.7090   66.0070 C.ar  287  PHE287     -0.0042
    109  CD2        3.0530   58.6510   64.2100 C.ar  287  PHE287     -0.0042
    110  CE1        2.9070   60.6180   66.1840 C.ar  287  PHE287     -0.0003
    111  CE2        4.1120   59.5500   64.3710 C.ar  287  PHE287     -0.0003
    112  CZ         4.0410   60.5400   65.3640 C.ar  287  PHE287     -0.0000
    113  N         11.0540   67.4840   70.2040 N.3   327  PHE327     -0.1227
    114  CA         9.6090   67.5460   70.2460 C.3   327  PHE327      0.1736
    115  C          8.9520   66.2780   70.7750 C.2   327  PHE327      0.2595
    116  O          8.0890   66.3120   71.6550 O.2   327  PHE327     -0.2718
    117  CB         9.1320   67.8480   68.8280 C.3   327  PHE327      0.0547
    118  CG         7.6690   68.0840   68.7120 C.ar  327  PHE327     -0.0202
    119  CD1        6.7970   67.0200   68.5150 C.ar  327  PHE327     -0.0042
    120  CD2        7.1620   69.3710   68.7910 C.ar  327  PHE327     -0.0042
    121  CE1        5.4420   67.2320   68.4010 C.ar  327  PHE327     -0.0003
    122  CE2        5.8090   69.5930   68.6770 C.ar  327  PHE327     -0.0003
    123  CZ         4.9460   68.5210   68.4840 C.ar  327  PHE327     -0.0000
    124  N          9.4240   65.1480   70.2810 N.am  328  PHE328     -0.1976
    125  CA         8.8500   63.8630   70.6520 C.3   328  PHE328      0.1639
    126  C          9.1520   63.4380   72.0730 C.2   328  PHE328      0.2290
    127  O          8.2860   62.9000   72.7510 O.2   328  PHE328     -0.2864
    128  CB         9.2350   62.8190   69.5870 C.3   328  PHE328      0.0560
    129  CG         8.8260   63.2390   68.2080 C.ar  328  PHE328     -0.0200
    130  CD1        7.4880   63.1760   67.8250 C.ar  328  PHE328     -0.0042
    131  CD2        9.7230   63.9020   67.3810 C.ar  328  PHE328     -0.0042
    132  CE1        7.0430   63.7850   66.6570 C.ar  328  PHE328     -0.0003
    133  CE2        9.2950   64.5140   66.2130 C.ar  328  PHE328     -0.0003
    134  CZ         7.9440   64.4580   65.8540 C.ar  328  PHE328     -0.0000
    135  N         13.7810   59.4380   61.7810 N.3   397  VAL397     -0.1245
    136  CA        13.7770   60.3460   60.6470 C.3   397  VAL397      0.1561
    137  C         15.0580   60.2370   59.8480 C.2   397  VAL397      0.2260
    138  O         15.0130   59.8700   58.6960 O.2   397  VAL397     -0.2867
    139  CB        13.6020   61.8370   61.0510 C.3   397  VAL397      0.0252
    140  CG1       13.5620   62.6940   59.8140 C.3   397  VAL397      0.0019
    141  CG2       12.3610   62.0490   61.8640 C.3   397  VAL397      0.0019
    142  N         12.4660   69.7910   64.8130 N.3   437  HIS437     -0.1226
    143  CA        11.7560   69.1810   63.7190 C.3   437  HIS437      0.1752
    144  C         10.5060   70.0290   63.4570 C.2   437  HIS437      0.2597
    145  O          9.6860   70.2570   64.3570 O.2   437  HIS437     -0.2718
    146  CB        11.3530   67.7700   64.1520 C.3   437  HIS437      0.0759
    147  CG        10.3370   67.1010   63.2730 C.ar  437  HIS437      0.0818
    148  ND1       10.6400   66.0300   62.4570 N.ar  437  HIS437     -0.2268
    149  CD2        8.9940   67.2450   63.2060 C.ar  437  HIS437      0.1154
    150  CE1        9.5320   65.5380   61.9380 C.ar  437  HIS437      0.1986
    151  NE2        8.5170   66.2590   62.3750 N.ar  437  HIS437     -0.2212
    152  N         10.4100   70.5480   62.2350 N.am  438  GLY438     -0.1942
    153  CA         9.2470   71.2990   61.8400 C.3   438  GLY438      0.2014
    154  C          9.4950   72.7650   61.7730 C.2   438  GLY438      0.2638
    155  O          8.6600   73.5330   61.2590 O.2   438  GLY438     -0.2714
    156  N         10.6680   73.1720   62.2210 N.am  439  TYR439     -0.1973
    157  CA        10.9290   74.5900   62.2000 C.3   439  TYR439      0.1639
    158  C         11.7200   75.1930   61.0170 C.2   439  TYR439      0.2290
    159  O         12.2400   76.3150   61.0830 O.2   439  TYR439     -0.2864
    160  CB        11.3490   75.0560   63.6020 C.3   439  TYR439      0.0560
    161  CG        10.1590   75.0310   64.5500 C.ar  439  TYR439     -0.0198
    162  CD1        9.7620   73.8530   65.1860 C.ar  439  TYR439     -0.0009
    163  CD2        9.3860   76.1540   64.7320 C.ar  439  TYR439     -0.0009
    164  CE1        8.6270   73.8030   65.9610 C.ar  439  TYR439      0.0417
    165  CE2        8.2450   76.1180   65.5010 C.ar  439  TYR439      0.0417
    166  CZ         7.8710   74.9430   66.1050 C.ar  439  TYR439      0.1957
    167  OH         6.6910   74.9240   66.7980 O.3   439  TYR439     -0.2866
    168  N         10.0760   74.7340   58.0300 N.3   441  ILE441     -0.1245
    169  CA         8.8530   75.0340   57.3290 C.3   441  ILE441      0.1561
    170  C          8.6710   76.5200   57.2210 C.2   441  ILE441      0.2260
    171  O          8.4620   77.0350   56.1320 O.2   441  ILE441     -0.2867
    172  CB         7.6020   74.5180   58.0680 C.3   441  ILE441      0.0252
    173  CG1        7.5420   72.9900   58.0990 C.3   441  ILE441      0.0019
    174  CG2        6.3550   75.0550   57.4000 C.3   441  ILE441      0.0019
    175  CD1        6.1690   72.4440   58.4890 C.3   441  ILE441      0.0001
@<TRIPOS>BOND
     1    48    47    2
     2    47    46    1
     3    57    58    1
     4    75    74    2
     5    46    49    1
     6    46    45    1
     7    49    50    1
     8    58    61    1
     9    58    59    1
    10    74    73    1
    11   171   170    2
    12    61    62    1
    13    50    51   ar
    14    50    52   ar
    15    59    60    2
    16    59    66   am
    17    51    53   ar
    18    52    54   ar
    19    69    68    2
    20   170   169    1
    21    66    67    1
    22   169   168    1
    23   169   172    1
    24    73    72    1
    25    73    76    1
    26   174   172    1
    27    15    16    1
    28    62    63    1
    29    53    55   ar
    30    54    55   ar
    31    68    72   am
    32    68    67    1
    33    55    56    1
    34   172   173    1
    35   173   175    1
    36    16    17    1
    37    67    70    1
    38   138   137    2
    39    63    64   ar
    40    63    65   ar
    41    90    89   ar
    42    90    88   ar
    43    89    87   ar
    44    70    71    1
    45    17    18    2
    46    17    19   am
    47    88    86   ar
    48   140   139    1
    49   137   136    1
    50    19    20    1
    51    87    84   ar
    52    42    41    2
    53   136   139    1
    54   136   135    1
    55    86    84   ar
    56    86    85   ar
    57    79    80    2
    58    79    78    1
    59   158   159    2
    60   158   157    1
    61   139   141    1
    62    84    82   ar
    63   155   154    2
    64    41    40    1
    65    77    78    1
    66    85    83   ar
    67    20    21    1
    68    25    26    2
    69    25    24    1
    70   154   153    1
    71   154   156   am
    72    13    14   ar
    73    13    11   ar
    74   153   152    1
    75    23    21   am
    76    23    24    1
    77   150   151   ar
    78   150   148   ar
    79    78    81    1
    80    82    83   ar
    81    82    81    1
    82    21    22    2
    83   157   156    1
    84   157   160    1
    85    27    28    1
    86   152   144   am
    87    14    12   ar
    88   151   149   ar
    89   148   147   ar
    90    39    40    1
    91    39    29   am
    92    40    43    1
    93    11     8   ar
    94    28    29    1
    95    28    31    1
    96   149   147   ar
    97    29    30    2
    98   147   146    1
    99   144   143    1
   100   144   145    2
   101    12    10   ar
   102   160   161    1
   103   143   146    1
   104   143   142    1
   105    44    43    1
   106     8    10   ar
   107     8     6   ar
   108   109   111   ar
   109   109   107   ar
   110   101    99   ar
   111   101   100   ar
   112    99    97   ar
   113   111   112   ar
   114    10     9   ar
   115     4     3    2
   116   161   163   ar
   117   161   162   ar
   118    31    32    1
   119   163   165   ar
   120     2     3    1
   121     2     5    1
   122     2     1    1
   123   106   107    1
   124   106   103    1
   125   105   104    2
   126   107   108   ar
   127   162   164   ar
   128     6     5    1
   129     6     7   ar
   130   100    98   ar
   131   112   110   ar
   132    34    32   ar
   133    34    36   ar
   134    97    96   ar
   135    32    33   ar
   136   165   166   ar
   137   104   103    1
   138   103   102    1
   139   134   133   ar
   140   134   132   ar
   141     9     7   ar
   142    36    37   ar
   143   164   166   ar
   144    33    35   ar
   145   108   110   ar
   146   166   167    1
   147   133   131   ar
   148    94    93    2
   149    98    96   ar
   150    96    95    1
   151    37    35   ar
   152    37    38    1
   153   132   130   ar
   154    93    92    1
   155   131   129   ar
   156    95    92    1
   157   130   129   ar
   158    92    91    1
   159   129   128    1
   160   121   123   ar
   161   121   119   ar
   162   123   122   ar
   163   119   118   ar
   164   122   120   ar
   165   118   120   ar
   166   118   117    1
   167   117   114    1
   168   128   125    1
   169   113   114    1
   170   114   115    1
   171   124   125    1
   172   124   115   am
   173   125   126    1
   174   115   116    2
   175   126   127    2
