@<TRIPOS>MOLECULE
tmp/1amoB00.pdb
 204 197 0 0 0
SMALL
GASTEIGER

@<TRIPOS>ATOM
      1  N         51.1670   30.3590   24.0460 N.3   249  HIS249     -0.1241
      2  CA        49.7260   30.2610   23.9390 C.3   249  HIS249      0.1621
      3  C         49.1390   31.4930   23.2910 C.2   249  HIS249      0.2264
      4  O         49.7590   32.5420   23.2720 O.2   249  HIS249     -0.2867
      5  CB        49.1120   30.0680   25.3210 C.3   249  HIS249      0.0745
      6  CG        49.6230   28.8610   26.0420 C.ar  249  HIS249      0.0817
      7  ND1       49.3270   27.5740   25.6470 N.ar  249  HIS249     -0.2268
      8  CD2       50.4110   28.7480   27.1340 C.ar  249  HIS249      0.1154
      9  CE1       49.9080   26.7210   26.4660 C.ar  249  HIS249      0.1986
     10  NE2       50.5720   27.4070   27.3790 N.ar  249  HIS249     -0.2212
     11  N         26.6150   30.7670   28.9200 N.3   308  THR308     -0.1203
     12  CA        26.5930   29.3280   28.7010 C.3   308  THR308      0.1994
     13  C         26.9400   28.4510   29.8970 C.2   308  THR308      0.2617
     14  O         26.2160   27.5120   30.1980 O.2   308  THR308     -0.2717
     15  CB        27.4560   28.9420   27.5030 C.3   308  THR308      0.1784
     16  OG1       28.8080   29.3480   27.7310 O.3   308  THR308     -0.2211
     17  CG2       26.9450   29.6260   26.2590 C.3   308  THR308      0.0376
     18  N         28.0300   28.7460   30.5910 N.am  309  ASN309     -0.1974
     19  CA        28.4050   27.9450   31.7540 C.3   309  ASN309      0.1688
     20  C         27.2810   27.9460   32.8000 C.2   309  ASN309      0.2292
     21  O         26.5620   28.9330   32.9480 O.2   309  ASN309     -0.2864
     22  CB        29.7240   28.4460   32.3400 C.3   309  ASN309      0.1181
     23  CG        30.9240   28.1490   31.4320 C.2   309  ASN309      0.2629
     24  OD1       30.7730   27.7710   30.2670 O.2   309  ASN309     -0.2716
     25  ND2       32.1220   28.3180   31.9710 N.am  309  ASN309     -0.0877
     26  N         25.5690   19.3230   36.6150 N.3   352  GLU352     -0.1245
     27  CA        25.5270   18.0980   35.8340 C.3   352  GLU352      0.1567
     28  C         24.6660   18.1670   34.5800 C.2   352  GLU352      0.2260
     29  O         25.0740   17.6930   33.5210 O.2   352  GLU352     -0.2867
     30  CB        25.0590   16.9450   36.7160 C.3   352  GLU352      0.0388
     31  CG        26.1800   16.0530   37.2290 C.3   352  GLU352      0.1160
     32  CD        26.6860   15.0830   36.1710 C.2   352  GLU352      0.3649
     33  OE1       25.8460   14.4220   35.5200 O.co2 352  GLU352     -0.2457
     34  OE2       27.9200   14.9680   36.0000 O.co2 352  GLU352     -0.2457
     35  N         24.0100   20.6880   32.9220 N.3   354  ARG354     -0.1245
     36  CA        24.5400   21.7470   32.0750 C.3   354  ARG354      0.1563
     37  C         23.4800   22.7050   31.5570 C.2   354  ARG354      0.2260
     38  O         23.3460   22.9530   30.3520 O.2   354  ARG354     -0.2867
     39  CB        25.3910   21.1620   30.9640 C.3   354  ARG354      0.0307
     40  CG        26.5140   20.3410   31.5430 C.3   354  ARG354      0.0489
     41  CD        27.8100   20.5840   30.8170 C.3   354  ARG354      0.2205
     42  NE        28.3850   21.8920   31.1160 N.pl3 354  ARG354     -0.0865
     43  CZ        29.4210   22.0790   31.9260 C.cat 354  ARG354      0.5346
     44  NH1       29.9950   21.0410   32.5300 N.pl3 354  ARG354      0.1354
     45  NH2       29.9150   23.2980   32.0960 N.pl3 354  ARG354      0.1354
     46  N         39.5380   32.0860   25.4910 N.3   384  ARG384     -0.1231
     47  CA        40.0080   30.7160   25.5010 C.3   384  ARG384      0.1694
     48  C         41.4130   30.6500   24.9290 C.2   384  ARG384      0.2592
     49  O         41.7240   31.3450   23.9710 O.2   384  ARG384     -0.2718
     50  CB        39.0440   29.8010   24.7420 C.3   384  ARG384      0.0321
     51  CG        37.7770   29.4770   25.5270 C.3   384  ARG384      0.0489
     52  CD        36.5920   30.3760   25.1580 C.3   384  ARG384      0.2205
     53  NE        36.0140   31.0450   26.3200 N.pl3 384  ARG384     -0.0865
     54  CZ        34.8610   30.7130   26.8960 C.cat 384  ARG384      0.5346
     55  NH1       34.1360   29.7110   26.4190 N.pl3 384  ARG384      0.1354
     56  NH2       34.4430   31.3680   27.9780 N.pl3 384  ARG384      0.1354
     57  N         42.2630   29.8250   25.5370 N.am  385  TYR385     -0.1962
     58  CA        43.6510   29.6660   25.1030 C.3   385  TYR385      0.1771
     59  C         43.8720   28.4570   24.1990 C.2   385  TYR385      0.2620
     60  O         43.2040   27.4300   24.3400 O.2   385  TYR385     -0.2715
     61  CB        44.5670   29.5550   26.3220 C.3   385  TYR385      0.0574
     62  CG        44.5800   30.7910   27.1890 C.ar  385  TYR385     -0.0198
     63  CD1       43.6290   30.9710   28.1880 C.ar  385  TYR385     -0.0009
     64  CD2       45.5350   31.7890   27.0000 C.ar  385  TYR385     -0.0009
     65  CE1       43.6250   32.1160   28.9810 C.ar  385  TYR385      0.0417
     66  CE2       45.5420   32.9370   27.7840 C.ar  385  TYR385      0.0417
     67  CZ        44.5850   33.0950   28.7740 C.ar  385  TYR385      0.1957
     68  OH        44.5850   34.2240   29.5610 O.3   385  TYR385     -0.2866
     69  N         44.8450   28.5780   23.2960 N.am  386  TYR386     -0.1960
     70  CA        45.1890   27.5140   22.3570 C.3   386  TYR386      0.1771
     71  C         46.7020   27.4240   22.1350 C.2   386  TYR386      0.2620
     72  O         47.3600   28.4250   21.8880 O.2   386  TYR386     -0.2715
     73  CB        44.4890   27.7460   21.0150 C.3   386  TYR386      0.0574
     74  CG        42.9950   27.7130   21.1220 C.ar  386  TYR386     -0.0198
     75  CD1       42.3240   26.5070   21.1990 C.ar  386  TYR386     -0.0009
     76  CD2       42.2540   28.8850   21.2300 C.ar  386  TYR386     -0.0009
     77  CE1       40.9620   26.4590   21.3940 C.ar  386  TYR386      0.0417
     78  CE2       40.8800   28.8440   21.4250 C.ar  386  TYR386      0.0417
     79  CZ        40.2460   27.6230   21.5100 C.ar  386  TYR386      0.1957
     80  OH        38.9020   27.5430   21.7520 O.3   386  TYR386     -0.2866
     81  N         47.2560   26.2240   22.2430 N.am  387  SER387     -0.1950
     82  CA        48.6790   26.0480   22.0370 C.3   387  SER387      0.1924
     83  C         48.9520   26.3290   20.5820 C.2   387  SER387      0.2314
     84  O         48.3520   25.7160   19.7060 O.2   387  SER387     -0.2863
     85  CB        49.1030   24.6270   22.3880 C.3   387  SER387      0.2116
     86  OG        49.0890   24.4200   23.7900 O.3   387  SER387     -0.2180
     87  N         45.0110   24.6010   16.6080 N.3   402  CYS402     -0.1221
     88  CA        44.5110   23.2460   16.3770 C.3   402  CYS402      0.1808
     89  C         43.4660   23.0540   17.4460 C.2   402  CYS402      0.2601
     90  O         43.7560   23.2240   18.6260 O.2   402  CYS402     -0.2717
     91  CB        45.6240   22.2010   16.5380 C.3   402  CYS402      0.0970
     92  SG        45.0920   20.4540   16.3100 S.3   402  CYS402     -0.0800
     93  N         42.2450   22.7200   17.0600 N.am  403  ALA403     -0.1965
     94  CA        41.2220   22.5440   18.0710 C.3   403  ALA403      0.1728
     95  C         40.1080   21.5960   17.6870 C.2   403  ALA403      0.2616
     96  O         39.8110   21.4000   16.5090 O.2   403  ALA403     -0.2715
     97  CB        40.6410   23.8950   18.4500 C.3   403  ALA403      0.0334
     98  N         39.5130   20.9860   18.7030 N.am  404  VAL404     -0.1977
     99  CA        38.3930   20.0840   18.5030 C.3   404  VAL404      0.1596
    100  C         37.1510   20.8710   18.9270 C.2   404  VAL404      0.2287
    101  O         37.1070   21.4400   20.0180 O.2   404  VAL404     -0.2864
    102  CB        38.5460   18.7980   19.3460 C.3   404  VAL404      0.0276
    103  CG1       38.8080   19.1440   20.7950 C.3   404  VAL404      0.0022
    104  CG2       37.3120   17.9330   19.2170 C.3   404  VAL404      0.0022
    105  N         33.8820   21.6510   20.4910 N.3   406  VAL406     -0.1245
    106  CA        33.0420   21.0890   21.5420 C.3   406  VAL406      0.1561
    107  C         31.5720   21.2220   21.1660 C.2   406  VAL406      0.2260
    108  O         31.1370   22.2420   20.6390 O.2   406  VAL406     -0.2867
    109  CB        33.2860   21.7460   22.9020 C.3   406  VAL406      0.0252
    110  CG1       32.2390   21.2650   23.9100 C.3   406  VAL406      0.0019
    111  CG2       34.6750   21.4070   23.3920 C.3   406  VAL406      0.0019
    112  N         27.9420   18.6870   22.4280 N.3   408  TYR408     -0.1227
    113  CA        27.4410   17.4500   22.9970 C.3   408  TYR408      0.1736
    114  C         25.9850   17.6390   23.4020 C.2   408  TYR408      0.2595
    115  O         25.4410   18.7350   23.2870 O.2   408  TYR408     -0.2718
    116  CB        28.2750   17.0930   24.2330 C.3   408  TYR408      0.0548
    117  CG        28.3270   18.2170   25.2410 C.ar  408  TYR408     -0.0200
    118  CD1       29.1630   19.3150   25.0400 C.ar  408  TYR408     -0.0009
    119  CD2       27.4860   18.2260   26.3510 C.ar  408  TYR408     -0.0009
    120  CE1       29.1550   20.3880   25.9000 C.ar  408  TYR408      0.0417
    121  CE2       27.4700   19.3020   27.2290 C.ar  408  TYR408      0.0417
    122  CZ        28.3050   20.3800   26.9930 C.ar  408  TYR408      0.1957
    123  OH        28.2870   21.4590   27.8390 O.3   408  TYR408     -0.2866
    124  N         25.3450   16.5580   23.8300 N.am  409  GLU409     -0.1979
    125  CA        23.9670   16.6330   24.2700 C.3   409  GLU409      0.1602
    126  C         24.0260   16.5190   25.7770 C.2   409  GLU409      0.2287
    127  O         24.6460   15.5990   26.3070 O.2   409  GLU409     -0.2864
    128  CB        23.1370   15.5000   23.6610 C.3   409  GLU409      0.0415
    129  CG        21.6530   15.5700   24.0250 C.3   409  GLU409      0.1163
    130  CD        20.7780   14.6290   23.2070 C.2   409  GLU409      0.3649
    131  OE1       21.2890   13.6030   22.6960 O.co2 409  GLU409     -0.2457
    132  OE2       19.5670   14.9200   23.0770 O.co2 409  GLU409     -0.2457
    133  N         26.8690   23.9130   22.9520 N.3   417  LYS417     -0.1231
    134  CA        27.9920   24.0710   22.0230 C.3   417  LYS417      0.1693
    135  C         29.1150   24.9120   22.6330 C.2   417  LYS417      0.2593
    136  O         28.8560   25.8470   23.3740 O.2   417  LYS417     -0.2718
    137  CB        27.5260   24.7170   20.7110 C.3   417  LYS417      0.0285
    138  CG        26.4220   23.9640   19.9570 C.3   417  LYS417      0.0035
    139  CD        26.1060   24.6420   18.6240 C.3   417  LYS417      0.0206
    140  CE        25.1070   23.8390   17.7940 C.3   417  LYS417      0.1093
    141  NZ        23.7990   23.6580   18.4900 N.3   417  LYS417     -0.1314
    142  N         30.3620   24.5600   22.3280 N.am  418  GLY418     -0.1942
    143  CA        31.4970   25.3050   22.8490 C.3   418  GLY418      0.2014
    144  C         31.4510   26.7310   22.3450 C.2   418  GLY418      0.2639
    145  O         31.2180   26.9620   21.1610 O.2   418  GLY418     -0.2714
    146  N         31.6860   27.6890   23.2330 N.am  419  VAL419     -0.1963
    147  CA        31.6350   29.0990   22.8530 C.3   419  VAL419      0.1727
    148  C         32.6400   29.4920   21.7640 C.2   419  VAL419      0.2616
    149  O         32.2540   29.8320   20.6460 O.2   419  VAL419     -0.2715
    150  CB        31.8000   30.0220   24.0890 C.3   419  VAL419      0.0290
    151  CG1       31.5700   31.4770   23.7010 C.3   419  VAL419      0.0023
    152  CG2       30.8250   29.6170   25.1820 C.3   419  VAL419      0.0023
    153  N         33.9230   29.4020   22.0850 N.am  420  ALA420     -0.1963
    154  CA        34.9720   29.7660   21.1470 C.3   420  ALA420      0.1728
    155  C         35.0880   28.8650   19.9260 C.2   420  ALA420      0.2616
    156  O         35.2430   29.3700   18.8180 O.2   420  ALA420     -0.2715
    157  CB        36.3060   29.8480   21.8620 C.3   420  ALA420      0.0334
    158  N         35.0460   27.5430   20.1370 N.am  421  THR421     -0.1951
    159  CA        35.1610   26.5360   19.0590 C.3   421  THR421      0.1897
    160  C         34.0680   26.6060   17.9900 C.2   421  THR421      0.2313
    161  O         34.3390   26.3760   16.8130 O.2   421  THR421     -0.2863
    162  CB        35.2130   25.1060   19.6180 C.3   421  THR421      0.1794
    163  OG1       33.9820   24.8170   20.2810 O.3   421  THR421     -0.2208
    164  CG2       36.3700   24.9440   20.5820 C.3   421  THR421      0.0378
    165  N         44.4790   16.4020   20.3480 N.3   458  THR458     -0.1218
    166  CA        44.7760   17.7860   20.0050 C.3   458  THR458      0.1862
    167  C         46.0270   18.2410   20.7160 C.2   458  THR458      0.2287
    168  O         46.4460   19.3820   20.5650 O.2   458  THR458     -0.2866
    169  CB        43.6360   18.7260   20.3350 C.3   458  THR458      0.1770
    170  OG1       43.1730   18.4590   21.6580 O.3   458  THR458     -0.2211
    171  CG2       42.5020   18.5550   19.3430 C.3   458  THR458      0.0375
    172  N         49.1770   19.8000   18.8990 N.3   461  ALA461     -0.1245
    173  CA        49.2210   21.2100   18.5360 C.3   461  ALA461      0.1562
    174  C         50.6060   21.8390   18.6440 C.2   461  ALA461      0.2260
    175  O         51.2390   22.0910   17.6230 O.2   461  ALA461     -0.2867
    176  CB        48.1900   22.0000   19.3470 C.3   461  ALA461      0.0290
    177  N         52.0070   20.6310   29.2680 N.3   598  ASP598     -0.1239
    178  CA        51.1400   21.5710   28.5690 C.3   598  ASP598      0.1674
    179  C         49.8030   20.8530   28.5070 C.2   598  ASP598      0.2266
    180  O         49.2940   20.5340   27.4310 O.2   598  ASP598     -0.2867
    181  CB        51.6690   21.8140   27.1520 C.3   598  ASP598      0.1410
    182  CG        50.7840   22.7570   26.3360 C.2   598  ASP598      0.3668
    183  OD1       49.9800   23.5280   26.9180 O.co2 598  ASP598     -0.2456
    184  OD2       50.9050   22.7290   25.0910 O.co2 598  ASP598     -0.2456
    185  N         45.6170   20.2470   29.9580 N.3   600  TRP600     -0.1227
    186  CA        44.4220   20.9920   30.3130 C.3   600  TRP600      0.1737
    187  C         43.2290   20.0890   30.5840 C.2   600  TRP600      0.2596
    188  O         43.3870   18.9040   30.8680 O.2   600  TRP600     -0.2718
    189  CB        44.0950   22.0470   29.2450 C.3   600  TRP600      0.0564
    190  CG        43.8120   21.5210   27.8700 C.ar  600  TRP600      0.0003
    191  CD1       42.5870   21.1750   27.3590 C.ar  600  TRP600      0.0946
    192  CD2       44.7580   21.3300   26.8100 C.ar  600  TRP600      0.0152
    193  NE1       42.7160   20.7850   26.0470 N.ar  600  TRP600     -0.2442
    194  CE2       44.0380   20.8680   25.6860 C.ar  600  TRP600      0.0810
    195  CE3       46.1420   21.5120   26.6970 C.ar  600  TRP600      0.0012
    196  CZ2       44.6620   20.5780   24.4620 C.ar  600  TRP600      0.0191
    197  CZ3       46.7610   21.2260   25.4730 C.ar  600  TRP600      0.0001
    198  CH2       46.0230   20.7670   24.3790 C.ar  600  TRP600      0.0015
    199  N         42.0340   20.6660   30.5570 N.am  601  SER601     -0.1952
    200  CA        40.8130   19.9080   30.7960 C.3   601  SER601      0.1924
    201  C         39.6470   20.5300   30.0330 C.2   601  SER601      0.2314
    202  O         39.8500   21.5890   29.3900 O.2   601  SER601     -0.2863
    203  CB        40.5000   19.8690   32.2900 C.3   601  SER601      0.2116
    204  OG        41.5970   19.3590   33.0360 O.3   601  SER601     -0.2180
@<TRIPOS>BOND
     1    92    91    1
     2    88    91    1
     3    88    87    1
     4    88    89    1
     5    96    95    2
     6   161   160    2
     7    93    89   am
     8    93    94    1
     9    89    90    2
    10   175   174    2
    11    95    94    1
    12    95    98   am
    13   140   141    1
    14   140   139    1
    15   160   159    1
    16    94    97    1
    17    99    98    1
    18    99   100    1
    19    99   102    1
    20   173   174    1
    21   173   172    1
    22   173   176    1
    23   139   138    1
    24   156   155    2
    25   100   101    2
    26   159   162    1
    27   159   158    1
    28   104   102    1
    29   171   169    1
    30   102   103    1
    31   162   163    1
    32   162   164    1
    33    84    83    2
    34   155   158   am
    35   155   154    1
    36   138   137    1
    37   166   169    1
    38   166   165    1
    39   166   167    1
    40   169   170    1
    41   105   106    1
    42   168   167    2
    43    83    82    1
    44   108   107    2
    45   149   148    2
    46   137   134    1
    47    73    74    1
    48    73    70    1
    49    74    75   ar
    50    74    76   ar
    51   154   157    1
    52   154   153    1
    53   145   144    2
    54   107   106    1
    55    75    77   ar
    56    76    78   ar
    57    77    79   ar
    58    78    79   ar
    59    79    80    1
    60   106   109    1
    61   148   153   am
    62   148   147    1
    63    72    71    2
    64   134   135    1
    65   134   133    1
    66    82    81    1
    67    82    85    1
    68    71    81   am
    69    71    70    1
    70   142   135   am
    71   142   143    1
    72   144   143    1
    73   144   146   am
    74    70    69    1
    75    85    86    1
    76   112   113    1
    77   135   136    2
    78   131   130   ar
    79   147   146    1
    80   147   150    1
    81   109   111    1
    82   109   110    1
    83   113   114    1
    84   113   116    1
    85   132   130   ar
    86   130   129    1
    87     4     3    2
    88   115   114    2
    89     3     2    1
    90    69    59   am
    91   114   124   am
    92   128   129    1
    93   128   125    1
    94   151   150    1
    95   124   125    1
    96     2     1    1
    97     2     5    1
    98    49    48    2
    99   150   152    1
   100    59    60    2
   101    59    58    1
   102   116   117    1
   103   125   126    1
   104   198   196   ar
   105   198   197   ar
   106   196   194   ar
   107    50    47    1
   108    50    51    1
   109    48    47    1
   110    48    57   am
   111   118   117   ar
   112   118   120   ar
   113   184   182   ar
   114    58    57    1
   115    58    61    1
   116    52    51    1
   117    52    53    1
   118   117   119   ar
   119     5     6    1
   120   197   195   ar
   121    46    47    1
   122     7     6   ar
   123     7     9   ar
   124   194   193   ar
   125   194   192   ar
   126   126   127    2
   127   120   122   ar
   128     6     8   ar
   129   193   191   ar
   130    17    15    1
   131    53    54    2
   132    61    62    1
   133   182   183   ar
   134   182   181    1
   135   119   121   ar
   136    55    54    1
   137     9    10   ar
   138   195   192   ar
   139   192   190   ar
   140    54    56    1
   141   122   121   ar
   142   122   123    1
   143    64    62   ar
   144    64    66   ar
   145     8    10   ar
   146   181   178    1
   147    62    63   ar
   148   191   190   ar
   149   180   179    2
   150    15    16    1
   151    15    12    1
   152    66    67   ar
   153   190   189    1
   154    63    65   ar
   155   179   178    1
   156   178   177    1
   157    12    11    1
   158    12    13    1
   159    67    65   ar
   160    67    68    1
   161   189   186    1
   162   202   201    2
   163    13    14    2
   164    13    18   am
   165   185   186    1
   166   201   200    1
   167    24    23    2
   168   186   187    1
   169    38    37    2
   170   199   187   am
   171   199   200    1
   172   187   188    2
   173    18    19    1
   174   200   203    1
   175    41    42    1
   176    41    40    1
   177    39    40    1
   178    39    36    1
   179    42    43    2
   180    23    25   am
   181    23    22    1
   182    37    36    1
   183    19    22    1
   184    19    20    1
   185    43    45    1
   186    43    44    1
   187    36    35    1
   188   203   204    1
   189    20    21    2
   190    29    28    2
   191    28    27    1
   192    33    32   ar
   193    27    26    1
   194    27    30    1
   195    34    32   ar
   196    32    31    1
   197    30    31    1
