@<TRIPOS>MOLECULE
tmp/1amsA01.pdb
 118 112 0 0 0
SMALL
GASTEIGER

@<TRIPOS>ATOM
      1  N         27.9210   17.9890   -9.9980 N.3    13  ILE13      -0.1231
      2  CA        26.5040   17.9240  -10.3660 C.3    13  ILE13       0.1692
      3  C         25.6990   18.6830   -9.3030 C.2    13  ILE13       0.2591
      4  O         25.1590   19.7660   -9.5410 O.2    13  ILE13      -0.2718
      5  CB        25.9760   16.4430  -10.3580 C.3    13  ILE13       0.0266
      6  CG1       26.8370   15.5360  -11.2460 C.3    13  ILE13       0.0019
      7  CG2       24.5120   16.3930  -10.8110 C.3    13  ILE13       0.0020
      8  CD1       26.7710   15.8740  -12.7120 C.3    13  ILE13       0.0001
      9  N         25.7100   18.1130   -8.1040 N.am   14  LEU14      -0.1980
     10  CA        24.9980   18.6180   -6.9410 C.3    14  LEU14       0.1596
     11  C         25.0500   20.1140   -6.6340 C.2    14  LEU14       0.2287
     12  O         24.0610   20.6770   -6.1650 O.2    14  LEU14      -0.2864
     13  CB        25.4260   17.8180   -5.7110 C.3    14  LEU14       0.0297
     14  CG        24.8390   16.4110   -5.5360 C.3    14  LEU14       0.0022
     15  CD1       23.4060   16.5270   -5.0080 C.3    14  LEU14       0.0001
     16  CD2       24.8980   15.5890   -6.8390 C.3    14  LEU14       0.0001
     17  N         20.3170   18.0710  -14.1140 N.3    33  ILE33      -0.1231
     18  CA        19.6890   17.1850  -13.1470 C.3    33  ILE33       0.1692
     19  C         20.0510   15.7010  -13.2460 C.2    33  ILE33       0.2593
     20  O         20.1420   15.0130  -12.2270 O.2    33  ILE33      -0.2718
     21  CB        18.1540   17.3530  -13.2070 C.3    33  ILE33       0.0266
     22  CG1       17.7070   17.5040  -14.6670 C.3    33  ILE33       0.0019
     23  CG2       17.7310   18.5630  -12.3940 C.3    33  ILE33       0.0020
     24  CD1       16.2350   17.7340  -14.8620 C.3    33  ILE33       0.0001
     25  N         20.2110   15.2000  -14.4650 N.am   34  GLY34      -0.1942
     26  CA        20.5320   13.7960  -14.6270 C.3    34  GLY34       0.2014
     27  C         19.3570   12.8640  -14.3820 C.2    34  GLY34       0.2638
     28  O         19.4240   11.6670  -14.6760 O.2    34  GLY34      -0.2714
     29  N         18.2760   13.4180  -13.8420 N.am   35  VAL35      -0.1977
     30  CA        17.0630   12.6660  -13.5540 C.3    35  VAL35       0.1596
     31  C         15.9880   13.0620  -14.5650 C.2    35  VAL35       0.2287
     32  O         16.0180   14.1680  -15.1070 O.2    35  VAL35      -0.2864
     33  CB        16.5880   12.9360  -12.1090 C.3    35  VAL35       0.0276
     34  CG1       15.2150   12.3590  -11.8740 C.3    35  VAL35       0.0022
     35  CG2       17.5590   12.3230  -11.1300 C.3    35  VAL35       0.0022
     36  N         25.8500    2.3340   -8.9770 N.3   104  THR104     -0.1218
     37  CA        27.0660    2.7340   -8.2920 C.3   104  THR104      0.1862
     38  C         27.5420    1.5990   -7.4050 C.2   104  THR104      0.2287
     39  O         28.7060    1.2300   -7.4470 O.2   104  THR104     -0.2866
     40  CB        26.8350    3.9780   -7.4200 C.3   104  THR104      0.1770
     41  OG1       26.3560    5.0530   -8.2350 O.3   104  THR104     -0.2211
     42  CG2       28.1240    4.3980   -6.7620 C.3   104  THR104      0.0375
     43  N         30.8190    9.5640  -16.8220 N.3   130  TRP130     -0.1241
     44  CA        30.1400    9.8680  -15.5730 C.3   130  TRP130      0.1605
     45  C         31.2830   10.0730  -14.5460 C.2   130  TRP130      0.2264
     46  O         32.0510    9.1410  -14.2590 O.2   130  TRP130     -0.2867
     47  CB        29.2200    8.6860  -15.1850 C.3   130  TRP130      0.0550
     48  CG        28.4110    8.9520  -13.9750 C.ar  130  TRP130      0.0003
     49  CD1       27.7340   10.1000  -13.6940 C.ar  130  TRP130      0.0946
     50  CD2       28.2580    8.1050  -12.8290 C.ar  130  TRP130      0.0152
     51  NE1       27.1840   10.0330  -12.4360 N.ar  130  TRP130     -0.2442
     52  CE2       27.4890    8.8180  -11.8850 C.ar  130  TRP130      0.0810
     53  CE3       28.7000    6.8170  -12.5000 C.ar  130  TRP130      0.0012
     54  CZ2       27.1510    8.2960  -10.6410 C.ar  130  TRP130      0.0191
     55  CZ3       28.3610    6.2930  -11.2480 C.ar  130  TRP130      0.0001
     56  CH2       27.5950    7.0360  -10.3390 C.ar  130  TRP130      0.0015
     57  N         26.7920    8.5230  -21.0170 N.3   183  ASN183     -0.1240
     58  CA        26.7570    9.7110  -20.1810 C.3   183  ASN183      0.1653
     59  C         28.2110   10.1660  -20.2410 C.2   183  ASN183      0.2266
     60  O         29.1150    9.3470  -20.0440 O.2   183  ASN183     -0.2867
     61  CB        26.3650    9.3370  -18.7450 C.3   183  ASN183      0.1155
     62  CG        26.2050   10.5500  -17.8430 C.2   183  ASN183      0.2627
     63  OD1       26.4530   11.6810  -18.2550 O.2   183  ASN183     -0.2716
     64  ND2       25.8170   10.3140  -16.5980 N.am  183  ASN183     -0.0877
     65  N         21.0060    3.0640  -18.7220 N.3   214  TYR214     -0.1241
     66  CA        19.9230    3.7460  -19.4290 C.3   214  TYR214      0.1605
     67  C         19.3380    2.8100  -20.4670 C.2   214  TYR214      0.2264
     68  O         18.9610    3.2330  -21.5640 O.2   214  TYR214     -0.2867
     69  CB        20.4370    5.0240  -20.1010 C.3   214  TYR214      0.0534
     70  CG        20.8960    6.0910  -19.1330 C.ar  214  TYR214     -0.0201
     71  CD1       21.9510    5.8510  -18.2560 C.ar  214  TYR214     -0.0009
     72  CD2       20.2660    7.3340  -19.0810 C.ar  214  TYR214     -0.0009
     73  CE1       22.3740    6.8120  -17.3450 C.ar  214  TYR214      0.0417
     74  CE2       20.6830    8.3090  -18.1690 C.ar  214  TYR214      0.0417
     75  CZ        21.7390    8.0350  -17.2990 C.ar  214  TYR214      0.1957
     76  OH        22.1570    8.9500  -16.3530 O.3   214  TYR214     -0.2866
     77  N         16.9420    4.5350  -13.5290 N.3   246  LYS246     -0.1245
     78  CA        16.3580    5.3940  -14.5520 C.3   246  LYS246      0.1561
     79  C         15.0980    4.8240  -15.2050 C.2   246  LYS246      0.2260
     80  O         14.0070    5.3760  -15.0610 O.2   246  LYS246     -0.2867
     81  CB        17.4030    5.7280  -15.6240 C.3   246  LYS246      0.0271
     82  CG        18.6870    6.3430  -15.0790 C.3   246  LYS246      0.0035
     83  CD        18.4090    7.6230  -14.3080 C.3   246  LYS246      0.0206
     84  CE        19.6800    8.2040  -13.7140 C.3   246  LYS246      0.1093
     85  NZ        19.4010    9.4270  -12.9130 N.3   246  LYS246     -0.1314
     86  N         17.6240    2.5600   -4.7390 N.3   254  ARG254     -0.1245
     87  CA        18.9130    1.9460   -5.0240 C.3   254  ARG254      0.1563
     88  C         18.7540    0.5410   -5.5770 C.2   254  ARG254      0.2260
     89  O         19.0060   -0.4630   -4.9040 O.2   254  ARG254     -0.2867
     90  CB        19.7860    1.9430   -3.7740 C.3   254  ARG254      0.0307
     91  CG        19.8340    3.2760   -3.0750 C.3   254  ARG254      0.0489
     92  CD        20.0130    4.4140   -4.0650 C.3   254  ARG254      0.2205
     93  NE        21.3410    4.4550   -4.6580 N.pl3 254  ARG254     -0.0865
     94  CZ        21.5790    4.5690   -5.9570 C.cat 254  ARG254      0.5346
     95  NH1       20.5790    4.6260   -6.8250 N.pl3 254  ARG254      0.1354
     96  NH2       22.8220    4.6060   -6.3940 N.pl3 254  ARG254      0.1354
     97  N         21.1760   12.7220  -21.9240 N.3   348  PHE348     -0.1241
     98  CA        22.2450   13.7060  -22.0680 C.3   348  PHE348      0.1605
     99  C         22.9080   13.9190  -23.4070 C.2   348  PHE348      0.2264
    100  O         22.9750   13.0210  -24.2460 O.2   348  PHE348     -0.2867
    101  CB        23.3500   13.3810  -21.0850 C.3   348  PHE348      0.0534
    102  CG        22.8700   13.1560  -19.6990 C.ar  348  PHE348     -0.0203
    103  CD1       22.3060   14.1860  -18.9690 C.ar  348  PHE348     -0.0042
    104  CD2       23.0270   11.9220  -19.1030 C.ar  348  PHE348     -0.0042
    105  CE1       21.9120   13.9870  -17.6640 C.ar  348  PHE348     -0.0003
    106  CE2       22.6360   11.7170  -17.8010 C.ar  348  PHE348     -0.0003
    107  CZ        22.0830   12.7510  -17.0800 C.ar  348  PHE348     -0.0000
    108  N         27.0370   20.2090  -20.5240 N.3   374  ARG374     -0.1245
    109  CA        26.1630   19.0520  -20.6420 C.3   374  ARG374      0.1563
    110  C         24.7720   19.5520  -20.3410 C.2   374  ARG374      0.2260
    111  O         24.5540   20.2940  -19.3820 O.2   374  ARG374     -0.2867
    112  CB        26.5280   17.9570  -19.6470 C.3   374  ARG374      0.0307
    113  CG        25.8420   16.6340  -19.9500 C.3   374  ARG374      0.0489
    114  CD        25.9020   15.6960  -18.7660 C.3   374  ARG374      0.2205
    115  NE        25.1160   16.1990  -17.6440 N.pl3 374  ARG374     -0.0865
    116  CZ        24.9050   15.5320  -16.5150 C.cat 374  ARG374      0.5346
    117  NH1       25.4130   14.3160  -16.3430 N.pl3 374  ARG374      0.1354
    118  NH2       24.1710   16.0860  -15.5580 N.pl3 374  ARG374      0.1354
@<TRIPOS>BOND
     1   100    99    2
     2    99    98    1
     3    98    97    1
     4    98   101    1
     5    68    67    2
     6   101   102    1
     7    57    58    1
     8   109   108    1
     9   109   110    1
    10   109   112    1
    11    67    66    1
    12   110   111    2
    13    59    58    1
    14    59    60    2
    15    58    61    1
    16    69    66    1
    17    69    70    1
    18   113   112    1
    19   113   114    1
    20   102   104   ar
    21   102   103   ar
    22    66    65    1
    23    70    72   ar
    24    70    71   ar
    25   104   106   ar
    26    72    74   ar
    27   103   105   ar
    28   114   115    1
    29    61    62    1
    30    71    73   ar
    31    63    62    2
    32    74    75   ar
    33    62    64   am
    34   106   107   ar
    35   105   107   ar
    36   115   116    2
    37    73    75   ar
    38    75    76    1
    39    43    44    1
    40   116   117    1
    41   116   118    1
    42    81    82    1
    43    81    78    1
    44    44    47    1
    45    44    45    1
    46    79    80    2
    47    79    78    1
    48    47    48    1
    49    32    31    2
    50    82    83    1
    51    24    22    1
    52    28    27    2
    53    22    21    1
    54    26    25    1
    55    26    27    1
    56    31    30    1
    57    78    77    1
    58    45    46    2
    59    25    19   am
    60    27    29   am
    61    83    84    1
    62    17    18    1
    63    48    49   ar
    64    48    50   ar
    65    29    30    1
    66    84    85    1
    67    49    51   ar
    68    30    33    1
    69    19    18    1
    70    19    20    2
    71    21    18    1
    72    21    23    1
    73    50    53   ar
    74    50    52   ar
    75     8     6    1
    76    53    55   ar
    77    51    52   ar
    78    33    34    1
    79    33    35    1
    80    52    54   ar
    81    55    56   ar
    82     6     5    1
    83     7     5    1
    84    54    56   ar
    85     2     5    1
    86     2     1    1
    87     2     3    1
    88     4     3    2
    89     3     9   am
    90    36    37    1
    91    37    40    1
    92    37    38    1
    93    41    40    1
    94     9    10    1
    95    39    38    2
    96    40    42    1
    97    10    11    1
    98    10    13    1
    99    16    14    1
   100    95    94    1
   101    11    12    2
   102    96    94    1
   103    94    93    2
   104    13    14    1
   105    88    87    1
   106    88    89    2
   107    14    15    1
   108    87    86    1
   109    87    90    1
   110    93    92    1
   111    92    91    1
   112    90    91    1
