@<TRIPOS>MOLECULE
tmp/1amuA01.pdb
 159 152 0 0 0
SMALL
GASTEIGER

@<TRIPOS>ATOM
      1  N         30.6170  104.9470   23.0910 N.3   174  THR174     -0.1203
      2  CA        31.4520  103.7540   23.0270 C.3   174  THR174      0.1994
      3  C         31.8910  103.5360   21.5640 C.2   174  THR174      0.2618
      4  O         31.2230  104.0020   20.6350 O.2   174  THR174     -0.2717
      5  CB        30.6810  102.5200   23.6210 C.3   174  THR174      0.1784
      6  OG1       31.5160  101.3560   23.6210 O.3   174  THR174     -0.2211
      7  CG2       29.4090  102.2310   22.8370 C.3   174  THR174      0.0376
      8  N         33.0250  102.8600   21.3730 N.am  175  SER175     -0.1951
      9  CA        33.6280  102.6360   20.0510 C.3   175  SER175      0.1924
     10  C         32.7470  101.9350   19.0150 C.2   175  SER175      0.2314
     11  O         32.5840  102.4250   17.8950 O.2   175  SER175     -0.2863
     12  CB        34.9640  101.8900   20.1960 C.3   175  SER175      0.2116
     13  OG        35.0460  101.1890   21.4300 O.3   175  SER175     -0.2180
     14  N         33.6480  107.7340   30.8110 N.3   213  PHE213     -0.1241
     15  CA        33.5470  106.2760   30.9090 C.3   213  PHE213      0.1605
     16  C         32.5270  105.9680   32.0190 C.2   213  PHE213      0.2264
     17  O         32.5810  106.5780   33.0930 O.2   213  PHE213     -0.2867
     18  CB        34.9290  105.6920   31.2540 C.3   213  PHE213      0.0534
     19  CG        35.0020  104.1870   31.1770 C.ar  213  PHE213     -0.0203
     20  CD1       34.4680  103.4980   30.0880 C.ar  213  PHE213     -0.0042
     21  CD2       35.6270  103.4600   32.1850 C.ar  213  PHE213     -0.0042
     22  CE1       34.5550  102.1140   30.0080 C.ar  213  PHE213     -0.0003
     23  CE2       35.7180  102.0740   32.1150 C.ar  213  PHE213     -0.0003
     24  CZ        35.1810  101.4010   31.0210 C.ar  213  PHE213     -0.0000
     25  N         37.4990   95.8100   36.4590 N.3   280  ALA280     -0.1231
     26  CA        36.5090   95.7500   35.4000 C.3   280  ALA280      0.1694
     27  C         37.0970   96.3770   34.1430 C.2   280  ALA280      0.2593
     28  O         38.1740   96.9880   34.1930 O.2   280  ALA280     -0.2718
     29  CB        35.2600   96.5120   35.8320 C.3   280  ALA280      0.0304
     30  N         36.3850   96.2430   33.0250 N.am  281  GLY281     -0.1942
     31  CA        36.8290   96.8570   31.7820 C.3   281  GLY281      0.2014
     32  C         37.5360   95.8940   30.8520 C.2   281  GLY281      0.2640
     33  O         37.3390   95.9280   29.6430 O.2   281  GLY281     -0.2714
     34  N         38.3710   95.0390   31.4220 N.am  282  SER282     -0.1935
     35  CA        39.0640   94.0170   30.6560 C.3   282  SER282      0.2055
     36  C         39.3560   92.8260   31.5560 C.2   282  SER282      0.2642
     37  O         39.1130   92.8670   32.7610 O.2   282  SER282     -0.2714
     38  CB        40.3560   94.5760   30.0620 C.3   282  SER282      0.2130
     39  OG        41.2460   95.0060   31.0750 O.3   282  SER282     -0.2179
     40  N         39.8740   91.7580   30.9700 N.am  283  ALA283     -0.1977
     41  CA        40.1380   90.5410   31.7180 C.3   283  ALA283      0.1597
     42  C         41.2090   90.6640   32.7940 C.2   283  ALA283      0.2287
     43  O         42.2710   91.2650   32.5800 O.2   283  ALA283     -0.2864
     44  CB        40.4780   89.3970   30.7620 C.3   283  ALA283      0.0319
     45  N         35.5060   90.6770   40.4070 N.3   300  ASN300     -0.1225
     46  CA        35.6310   90.8850   38.9730 C.3   300  ASN300      0.1785
     47  C         34.2280   91.2540   38.4960 C.2   300  ASN300      0.2597
     48  O         33.2680   90.4990   38.7000 O.2   300  ASN300     -0.2718
     49  CB        36.1110   89.5990   38.2970 C.3   300  ASN300      0.1169
     50  CG        36.3790   89.7780   36.8150 C.2   300  ASN300      0.2627
     51  OD1       36.5160   90.9010   36.3140 O.2   300  ASN300     -0.2716
     52  ND2       36.4750   88.6620   36.1020 N.am  300  ASN300     -0.0877
     53  N         34.0970   92.4540   37.9450 N.am  301  ALA301     -0.1966
     54  CA        32.8120   92.9480   37.4750 C.3   301  ALA301      0.1728
     55  C         32.8260   93.1090   35.9640 C.2   301  ALA301      0.2616
     56  O         33.7150   93.7520   35.4000 O.2   301  ALA301     -0.2715
     57  CB        32.4910   94.2720   38.1420 C.3   301  ALA301      0.0334
     58  N         31.8240   92.5410   35.3120 N.am  302  TYR302     -0.1960
     59  CA        31.7300   92.5980   33.8710 C.3   302  TYR302      0.1771
     60  C         30.4600   93.3080   33.4230 C.2   302  TYR302      0.2620
     61  O         29.4010   93.1440   34.0260 O.2   302  TYR302     -0.2715
     62  CB        31.7600   91.1710   33.3060 C.3   302  TYR302      0.0574
     63  CG        31.1560   91.0360   31.9230 C.ar  302  TYR302     -0.0198
     64  CD1       29.7850   90.8060   31.7650 C.ar  302  TYR302     -0.0009
     65  CD2       31.9430   91.1740   30.7760 C.ar  302  TYR302     -0.0009
     66  CE1       29.2100   90.7280   30.5080 C.ar  302  TYR302      0.0417
     67  CE2       31.3750   91.0950   29.5040 C.ar  302  TYR302      0.0417
     68  CZ        30.0100   90.8740   29.3800 C.ar  302  TYR302      0.1957
     69  OH        29.4310   90.8240   28.1370 O.3   302  TYR302     -0.2866
     70  N         30.5620   94.0650   32.3360 N.am  303  GLY303     -0.1940
     71  CA        29.3780   94.6580   31.7530 C.3   303  GLY303      0.1998
     72  C         29.6740   95.6790   30.6770 C.2   303  GLY303      0.2481
     73  O         30.7180   96.3380   30.7220 O.2   303  GLY303     -0.2729
     74  N         28.8100   95.7810   29.6540 N.am  304  PRO304     -0.2715
     75  CA        28.9670   96.7620   28.5810 C.3   304  PRO304      0.1536
     76  C         28.2630   98.0530   28.9900 C.2   304  PRO304      0.2599
     77  O         27.4370   98.0590   29.9110 O.2   304  PRO304     -0.2715
     78  CB        28.2440   96.1000   27.4160 C.3   304  PRO304      0.0310
     79  CG        27.1020   95.4290   28.0930 C.3   304  PRO304      0.0237
     80  CD        27.7380   94.8200   29.3300 C.3   304  PRO304      0.0939
     81  N         28.5730   99.1440   28.3030 N.am  305  THR305     -0.1937
     82  CA        27.9220  100.4240   28.5630 C.3   305  THR305      0.2028
     83  C         26.4130  100.2720   28.3580 C.2   305  THR305      0.2642
     84  O         25.6120  100.8500   29.0930 O.2   305  THR305     -0.2714
     85  CB        28.4430  101.5000   27.5900 C.3   305  THR305      0.1808
     86  OG1       29.8720  101.5390   27.6550 O.3   305  THR305     -0.2208
     87  CG2       27.8890  102.8660   27.9460 C.3   305  THR305      0.0379
     88  N         26.0540   99.4160   27.4070 N.am  306  GLU306     -0.1976
     89  CA        24.6790   99.1980   26.9830 C.3   306  GLU306      0.1602
     90  C         23.7040   98.5600   27.9770 C.2   306  GLU306      0.2287
     91  O         22.5070   98.5260   27.7200 O.2   306  GLU306     -0.2864
     92  CB        24.6610   98.4160   25.6650 C.3   306  GLU306      0.0415
     93  CG        25.2100   99.1910   24.4600 C.3   306  GLU306      0.1163
     94  CD        26.7300   99.1070   24.2780 C.2   306  GLU306      0.3649
     95  OE1       27.4530   98.6290   25.1800 O.co2 306  GLU306     -0.2457
     96  OE2       27.2000   99.5300   23.2030 O.co2 306  GLU306     -0.2457
     97  N         33.7420   85.7370   34.9970 N.3   327  ILE327     -0.1245
     98  CA        33.0870   87.0280   35.1500 C.3   327  ILE327      0.1561
     99  C         31.8590   86.8600   36.0660 C.2   327  ILE327      0.2260
    100  O         31.1870   87.8310   36.4050 O.2   327  ILE327     -0.2867
    101  CB        32.7050   87.6750   33.8050 C.3   327  ILE327      0.0252
    102  CG1       31.8970   86.7110   32.9390 C.3   327  ILE327      0.0019
    103  CG2       33.9490   88.1480   33.0870 C.3   327  ILE327      0.0019
    104  CD1       31.3340   87.3520   31.6990 C.3   327  ILE327      0.0001
    105  N         25.9190   91.3340   23.1830 N.3   390  THR390     -0.1218
    106  CA        27.1540   92.0120   23.5620 C.3   390  THR390      0.1862
    107  C         28.3030   91.9430   22.5770 C.2   390  THR390      0.2287
    108  O         29.1810   92.7950   22.6230 O.2   390  THR390     -0.2866
    109  CB        27.7020   91.5130   24.9040 C.3   390  THR390      0.1770
    110  OG1       28.1850   90.1790   24.7400 O.3   390  THR390     -0.2211
    111  CG2       26.6210   91.5440   25.9830 C.3   390  THR390      0.0375
    112  N         30.3600   89.5520   22.7900 N.3   392  ASP392     -0.1239
    113  CA        31.3380   88.7830   23.5520 C.3   392  ASP392      0.1674
    114  C         31.0250   87.2990   23.4700 C.2   392  ASP392      0.2266
    115  O         29.8560   86.9040   23.4170 O.2   392  ASP392     -0.2867
    116  CB        31.3360   89.1830   25.0300 C.3   392  ASP392      0.1410
    117  CG        31.7830   90.5980   25.2510 C.2   392  ASP392      0.3668
    118  OD1       32.7770   91.0120   24.6210 O.co2 392  ASP392     -0.2456
    119  OD2       31.1360   91.2940   26.0580 O.co2 392  ASP392     -0.2456
    120  N         34.3530   84.2110   30.5050 N.3   404  TYR404     -0.1241
    121  CA        34.5040   85.1300   29.3790 C.3   404  TYR404      0.1605
    122  C         35.5630   84.5660   28.4280 C.2   404  TYR404      0.2264
    123  O         36.6540   84.1990   28.8630 O.2   404  TYR404     -0.2867
    124  CB        34.9100   86.5130   29.9050 C.3   404  TYR404      0.0534
    125  CG        35.2210   87.5330   28.8380 C.ar  404  TYR404     -0.0201
    126  CD1       34.2000   88.2280   28.1880 C.ar  404  TYR404     -0.0009
    127  CD2       36.5430   87.7970   28.4700 C.ar  404  TYR404     -0.0009
    128  CE1       34.4900   89.1610   27.1940 C.ar  404  TYR404      0.0417
    129  CE2       36.8450   88.7240   27.4780 C.ar  404  TYR404      0.0417
    130  CZ        35.8170   89.4000   26.8430 C.ar  404  TYR404      0.1957
    131  OH        36.1180   90.2960   25.8430 O.3   404  TYR404     -0.2866
    132  N         36.2240   88.7940   22.7060 N.3   407  ARG407     -0.1245
    133  CA        35.3540   89.4420   21.7390 C.3   407  ARG407      0.1563
    134  C         35.2400   88.5350   20.5260 C.2   407  ARG407      0.2260
    135  O         36.2480   87.9930   20.0690 O.2   407  ARG407     -0.2867
    136  CB        35.9570   90.7800   21.3010 C.3   407  ARG407      0.0307
    137  CG        36.1350   91.8070   22.4100 C.3   407  ARG407      0.0489
    138  CD        35.2140   93.0000   22.1880 C.3   407  ARG407      0.2205
    139  NE        33.8160   92.6600   22.4480 N.pl3 407  ARG407     -0.0865
    140  CZ        32.7730   93.1760   21.8060 C.cat 407  ARG407      0.5346
    141  NH1       32.9320   94.0520   20.8190 N.pl3 407  ARG407      0.1354
    142  NH2       31.5560   92.8320   22.1810 N.pl3 407  ARG407      0.1354
    143  N         40.2970  104.9150   28.6180 N.3   494  ASN494     -0.1240
    144  CA        39.4980  104.0680   29.5020 C.3   494  ASN494      0.1653
    145  C         40.3090  102.9500   30.1470 C.2   494  ASN494      0.2266
    146  O         39.7600  102.1220   30.8660 O.2   494  ASN494     -0.2867
    147  CB        38.2870  103.4950   28.7530 C.3   494  ASN494      0.1155
    148  CG        37.2820  104.5750   28.3570 C.2   494  ASN494      0.2627
    149  OD1       37.0610  105.5370   29.0950 O.2   494  ASN494     -0.2716
    150  ND2       36.6890  104.4310   27.1800 N.am  494  ASN494     -0.0877
    151  N         42.0650  100.4860   28.5540 N.3   496  LYS496     -0.1245
    152  CA        42.0870   99.2280   27.8120 C.3   496  LYS496      0.1561
    153  C         43.2620   99.2210   26.8370 C.2   496  LYS496      0.2260
    154  O         43.8250  100.2730   26.5410 O.2   496  LYS496     -0.2867
    155  CB        40.7550   99.0300   27.0770 C.3   496  LYS496      0.0271
    156  CG        39.5770   98.9500   28.0410 C.3   496  LYS496      0.0035
    157  CD        38.2330   98.8190   27.3530 C.3   496  LYS496      0.0206
    158  CE        37.1410   98.6540   28.4000 C.3   496  LYS496      0.1093
    159  NZ        35.8110   98.3270   27.8240 N.3   496  LYS496     -0.1314
@<TRIPOS>BOND
     1    11    10    2
     2    10     9    1
     3     9    12    1
     4     9     8    1
     5   135   134    2
     6    12    13    1
     7   134   133    1
     8     4     3    2
     9   141   140    1
    10   136   133    1
    11   136   137    1
    12     8     3   am
    13     3     2    1
    14   133   132    1
    15   140   142    1
    16   140   139    2
    17   138   137    1
    18   138   139    1
    19   107   108    2
    20   107   106    1
    21   112   113    1
    22     7     5    1
    23     2     1    1
    24     2     5    1
    25   105   106    1
    26    96    94   ar
    27   115   114    2
    28   114   113    1
    29   113   116    1
    30   106   109    1
    31     5     6    1
    32    94    93    1
    33    94    95   ar
    34    93    92    1
    35   118   117   ar
    36   110   109    1
    37   109   111    1
    38   116   117    1
    39   117   119   ar
    40    92    89    1
    41   131   130    1
    42   154   153    2
    43   153   152    1
    44   130   128   ar
    45   130   129   ar
    46    89    88    1
    47    89    90    1
    48   155   152    1
    49   155   156    1
    50   150   148   am
    51   128   126   ar
    52   157   156    1
    53   157   158    1
    54    88    83   am
    55    78    79    1
    56    78    75    1
    57   129   127   ar
    58    85    86    1
    59    85    87    1
    60    85    82    1
    61    91    90    2
    62   152   151    1
    63   159   158    1
    64    79    80    1
    65    69    68    1
    66   126   125   ar
    67    81    82    1
    68    81    76   am
    69   148   147    1
    70   148   149    2
    71    83    82    1
    72    83    84    2
    73   122   123    2
    74   122   121    1
    75   127   125   ar
    76    75    76    1
    77    75    74    1
    78   143   144    1
    79   147   144    1
    80   125   124    1
    81    76    77    2
    82    80    74    1
    83   121   124    1
    84   121   120    1
    85    68    67   ar
    86    68    66   ar
    87   144   145    1
    88    67    65   ar
    89    33    32    2
    90    74    72   am
    91    22    20   ar
    92    22    24   ar
    93    38    35    1
    94    38    39    1
    95    20    19   ar
    96   145   146    2
    97    66    64   ar
    98    35    34    1
    99    35    36    1
   100    72    73    2
   101    72    71    1
   102    44    41    1
   103    65    63   ar
   104    14    15    1
   105    32    34   am
   106    32    31    1
   107    15    18    1
   108    15    16    1
   109    40    36   am
   110    40    41    1
   111    24    23   ar
   112    19    18    1
   113    19    21   ar
   114    36    37    2
   115   104   102    1
   116    41    42    1
   117    71    70    1
   118    64    63   ar
   119    31    30    1
   120    63    62    1
   121    16    17    2
   122    23    21   ar
   123    70    60   am
   124    43    42    2
   125   102   101    1
   126    30    27   am
   127   103   101    1
   128    62    59    1
   129    60    59    1
   130    60    61    2
   131   101    98    1
   132    59    58    1
   133    27    28    2
   134    27    26    1
   135    97    98    1
   136    98    99    1
   137    58    55   am
   138    26    29    1
   139    26    25    1
   140    56    55    2
   141    55    54    1
   142    99   100    2
   143    52    50   am
   144    51    50    2
   145    50    49    1
   146    54    53    1
   147    54    57    1
   148    53    47   am
   149    49    46    1
   150    47    48    2
   151    47    46    1
   152    46    45    1
