@<TRIPOS>MOLECULE
tmp/1amuA00.pdb
 112 110 0 0 0
SMALL
GASTEIGER

@<TRIPOS>ATOM
      1  N         33.6480  107.7340   30.8110 N.3   213  PHE213     -0.1227
      2  CA        33.5470  106.2760   30.9090 C.3   213  PHE213      0.1736
      3  C         32.5270  105.9680   32.0190 C.2   213  PHE213      0.2595
      4  O         32.5810  106.5780   33.0930 O.2   213  PHE213     -0.2718
      5  CB        34.9290  105.6920   31.2540 C.3   213  PHE213      0.0547
      6  CG        35.0020  104.1870   31.1770 C.ar  213  PHE213     -0.0202
      7  CD1       34.4680  103.4980   30.0880 C.ar  213  PHE213     -0.0042
      8  CD2       35.6270  103.4600   32.1850 C.ar  213  PHE213     -0.0042
      9  CE1       34.5550  102.1140   30.0080 C.ar  213  PHE213     -0.0003
     10  CE2       35.7180  102.0740   32.1150 C.ar  213  PHE213     -0.0003
     11  CZ        35.1810  101.4010   31.0210 C.ar  213  PHE213     -0.0000
     12  N         31.6280  105.0080   31.7940 N.am  214  ASP214     -0.1960
     13  CA        30.5710  104.7350   32.7740 C.3   214  ASP214      0.1840
     14  C         31.0480  104.2220   34.1260 C.2   214  ASP214      0.2621
     15  O         30.2780  104.1740   35.0830 O.2   214  ASP214     -0.2715
     16  CB        29.4440  103.8540   32.2030 C.3   214  ASP214      0.1450
     17  CG        29.8760  102.4190   31.8940 C.2   214  ASP214      0.3671
     18  OD1       31.0410  102.0330   32.0960 O.co2 214  ASP214     -0.2456
     19  OD2       29.0190  101.6580   31.4170 O.co2 214  ASP214     -0.2456
     20  N         32.3210  103.8420   34.2080 N.am  215  ALA215     -0.1977
     21  CA        32.8920  103.4470   35.4870 C.3   215  ALA215      0.1597
     22  C         32.7940  104.6350   36.4500 C.2   215  ALA215      0.2287
     23  O         32.6770  104.4480   37.6640 O.2   215  ALA215     -0.2864
     24  CB        34.3390  103.0160   35.3200 C.3   215  ALA215      0.0319
     25  N         29.4150  104.6130   37.8570 N.3   218  TRP218     -0.1241
     26  CA        29.4750  103.5370   38.8430 C.3   218  TRP218      0.1605
     27  C         30.0200  104.0410   40.1870 C.2   218  TRP218      0.2264
     28  O         29.3920  103.8370   41.2310 O.2   218  TRP218     -0.2867
     29  CB        30.3410  102.4090   38.2660 C.3   218  TRP218      0.0550
     30  CG        30.7840  101.3030   39.1950 C.ar  218  TRP218      0.0003
     31  CD1       31.9740  101.2350   39.8760 C.ar  218  TRP218      0.0946
     32  CD2       30.1530  100.0280   39.3790 C.ar  218  TRP218      0.0152
     33  NE1       32.1300   99.9940   40.4390 N.ar  218  TRP218     -0.2442
     34  CE2       31.0270   99.2300   40.1500 C.ar  218  TRP218      0.0810
     35  CE3       28.9350   99.4750   38.9520 C.ar  218  TRP218      0.0012
     36  CZ2       30.7280   97.9060   40.5050 C.ar  218  TRP218      0.0191
     37  CZ3       28.6380   98.1610   39.3040 C.ar  218  TRP218      0.0001
     38  CH2       29.5310   97.3920   40.0710 C.ar  218  TRP218      0.0015
     39  N         37.4630  100.7590   42.3210 N.3   257  THR257     -0.1218
     40  CA        37.2240  100.0120   41.0930 C.3   257  THR257      0.1862
     41  C         38.2960  100.4620   40.1050 C.2   257  THR257      0.2287
     42  O         38.4160  101.6520   39.8080 O.2   257  THR257     -0.2866
     43  CB        35.8140  100.3200   40.5220 C.3   257  THR257      0.1770
     44  OG1       34.8230   99.9050   41.4690 O.3   257  THR257     -0.2211
     45  CG2       35.5770   99.6010   39.1940 C.3   257  THR257      0.0375
     46  N         37.4990   95.8100   36.4590 N.3   280  ALA280     -0.1231
     47  CA        36.5090   95.7500   35.4000 C.3   280  ALA280      0.1694
     48  C         37.0970   96.3770   34.1430 C.2   280  ALA280      0.2592
     49  O         38.1740   96.9880   34.1930 O.2   280  ALA280     -0.2718
     50  CB        35.2600   96.5120   35.8320 C.3   280  ALA280      0.0304
     51  N         36.3850   96.2430   33.0250 N.am  281  GLY281     -0.1957
     52  CA        36.8290   96.8570   31.7820 C.3   281  GLY281      0.1869
     53  C         37.5360   95.8940   30.8520 C.2   281  GLY281      0.2309
     54  O         37.3390   95.9280   29.6430 O.2   281  GLY281     -0.2863
     55  N         34.0970   92.4540   37.9450 N.3   301  ALA301     -0.1231
     56  CA        32.8120   92.9480   37.4750 C.3   301  ALA301      0.1694
     57  C         32.8260   93.1090   35.9640 C.2   301  ALA301      0.2592
     58  O         33.7150   93.7520   35.4000 O.2   301  ALA301     -0.2718
     59  CB        32.4910   94.2720   38.1420 C.3   301  ALA301      0.0304
     60  N         31.8240   92.5410   35.3120 N.am  302  TYR302     -0.1962
     61  CA        31.7300   92.5980   33.8710 C.3   302  TYR302      0.1771
     62  C         30.4600   93.3080   33.4230 C.2   302  TYR302      0.2620
     63  O         29.4010   93.1440   34.0260 O.2   302  TYR302     -0.2715
     64  CB        31.7600   91.1710   33.3060 C.3   302  TYR302      0.0574
     65  CG        31.1560   91.0360   31.9230 C.ar  302  TYR302     -0.0198
     66  CD1       29.7850   90.8060   31.7650 C.ar  302  TYR302     -0.0009
     67  CD2       31.9430   91.1740   30.7760 C.ar  302  TYR302     -0.0009
     68  CE1       29.2100   90.7280   30.5080 C.ar  302  TYR302      0.0417
     69  CE2       31.3750   91.0950   29.5040 C.ar  302  TYR302      0.0417
     70  CZ        30.0100   90.8740   29.3800 C.ar  302  TYR302      0.1957
     71  OH        29.4310   90.8240   28.1370 O.3   302  TYR302     -0.2866
     72  N         30.5620   94.0650   32.3360 N.am  303  GLY303     -0.1940
     73  CA        29.3780   94.6580   31.7530 C.3   303  GLY303      0.1998
     74  C         29.6740   95.6790   30.6770 C.2   303  GLY303      0.2481
     75  O         30.7180   96.3380   30.7220 O.2   303  GLY303     -0.2729
     76  N         28.8100   95.7810   29.6540 N.am  304  PRO304     -0.2715
     77  CA        28.9670   96.7620   28.5810 C.3   304  PRO304      0.1536
     78  C         28.2630   98.0530   28.9900 C.2   304  PRO304      0.2599
     79  O         27.4370   98.0590   29.9110 O.2   304  PRO304     -0.2715
     80  CB        28.2440   96.1000   27.4160 C.3   304  PRO304      0.0310
     81  CG        27.1020   95.4290   28.0930 C.3   304  PRO304      0.0237
     82  CD        27.7380   94.8200   29.3300 C.3   304  PRO304      0.0939
     83  N         28.5730   99.1440   28.3030 N.am  305  THR305     -0.1951
     84  CA        27.9220  100.4240   28.5630 C.3   305  THR305      0.1897
     85  C         26.4130  100.2720   28.3580 C.2   305  THR305      0.2313
     86  O         25.6120  100.8500   29.0930 O.2   305  THR305     -0.2863
     87  CB        28.4430  101.5000   27.5900 C.3   305  THR305      0.1794
     88  OG1       29.8720  101.5390   27.6550 O.3   305  THR305     -0.2208
     89  CG2       27.8890  102.8660   27.9460 C.3   305  THR305      0.0378
     90  N         26.4930   99.7150   32.8430 N.3   309  ILE309     -0.1231
     91  CA        27.7530   99.4370   33.5240 C.3   309  ILE309      0.1692
     92  C         28.0920   97.9790   33.8050 C.2   309  ILE309      0.2592
     93  O         29.0850   97.4600   33.2830 O.2   309  ILE309     -0.2718
     94  CB        27.8620  100.2310   34.8580 C.3   309  ILE309      0.0266
     95  CG1       27.4110  101.6820   34.6580 C.3   309  ILE309      0.0019
     96  CG2       29.3040  100.2290   35.3530 C.3   309  ILE309      0.0020
     97  CD1       27.2190  102.4400   35.9430 C.3   309  ILE309      0.0001
     98  N         27.2830   97.3380   34.6400 N.am  310  CYS310     -0.1970
     99  CA        27.5900   96.0130   35.1560 C.3   310  CYS310      0.1712
    100  C         26.4480   95.0050   35.0080 C.2   310  CYS310      0.2296
    101  O         25.3270   95.2520   35.4610 O.2   310  CYS310     -0.2864
    102  CB        27.9780   96.1510   36.6320 C.3   310  CYS310      0.0983
    103  SG        28.4500   94.6360   37.4740 S.3   310  CYS310     -0.0798
    104  N         42.0650  100.4860   28.5540 N.3   496  LYS496     -0.1245
    105  CA        42.0870   99.2280   27.8120 C.3   496  LYS496      0.1561
    106  C         43.2620   99.2210   26.8370 C.2   496  LYS496      0.2260
    107  O         43.8250  100.2730   26.5410 O.2   496  LYS496     -0.2867
    108  CB        40.7550   99.0300   27.0770 C.3   496  LYS496      0.0271
    109  CG        39.5770   98.9500   28.0410 C.3   496  LYS496      0.0035
    110  CD        38.2330   98.8190   27.3530 C.3   496  LYS496      0.0206
    111  CE        37.1410   98.6540   28.4000 C.3   496  LYS496      0.1093
    112  NZ        35.8110   98.3270   27.8240 N.3   496  LYS496     -0.1314
@<TRIPOS>BOND
     1   107   106    2
     2   106   105    1
     3   108   105    1
     4   108   109    1
     5   110   109    1
     6   110   111    1
     7    80    81    1
     8    80    77    1
     9    87    88    1
    10    87    89    1
    11    87    84    1
    12   105   104    1
    13   112   111    1
    14    81    82    1
    15    71    70    1
    16    83    84    1
    17    83    78   am
    18    85    84    1
    19    85    86    2
    20    77    78    1
    21    77    76    1
    22    78    79    2
    23    82    76    1
    24    70    69   ar
    25    70    68   ar
    26    69    67   ar
    27    54    53    2
    28    76    74   am
    29     9     7   ar
    30     9    11   ar
    31     7     6   ar
    32    68    66   ar
    33    74    75    2
    34    74    73    1
    35    67    65   ar
    36     1     2    1
    37    53    52    1
    38     2     5    1
    39     2     3    1
    40    11    10   ar
    41     6     5    1
    42     6     8   ar
    43    19    17   ar
    44    73    72    1
    45    66    65   ar
    46    52    51    1
    47    12     3   am
    48    12    13    1
    49    17    18   ar
    50    17    16    1
    51    65    64    1
    52     3     4    2
    53    10     8   ar
    54    16    13    1
    55    72    62   am
    56    13    14    1
    57    90    91    1
    58    51    48   am
    59    93    92    2
    60    64    61    1
    61    62    61    1
    62    62    63    2
    63    91    92    1
    64    91    94    1
    65    92    98   am
    66    61    60    1
    67    14    20   am
    68    14    15    2
    69    48    49    2
    70    48    47    1
    71    20    21    1
    72    98    99    1
    73    95    94    1
    74    95    97    1
    75    94    96    1
    76   100    99    1
    77   100   101    2
    78    99   102    1
    79    60    57   am
    80    24    21    1
    81    58    57    2
    82    47    50    1
    83    47    46    1
    84    21    22    1
    85    57    56    1
    86    22    23    2
    87   102   103    1
    88    56    55    1
    89    56    59    1
    90    25    26    1
    91    29    26    1
    92    29    30    1
    93    26    27    1
    94    35    37   ar
    95    35    32   ar
    96    45    43    1
    97    30    32   ar
    98    30    31   ar
    99    37    38   ar
   100    32    34   ar
   101    42    41    2
   102    31    33   ar
   103    38    36   ar
   104    41    40    1
   105    34    33   ar
   106    34    36   ar
   107    27    28    2
   108    43    40    1
   109    43    44    1
   110    40    39    1
