@<TRIPOS>MOLECULE
tmp/1amwA00.pdb
 153 143 0 0 0
SMALL
GASTEIGER

@<TRIPOS>ATOM
      1  N         16.7970  -11.0030    0.0580 N.3    33  LEU33      -0.1245
      2  CA        17.8660  -10.1390   -0.4470 C.3    33  LEU33       0.1561
      3  C         18.4640  -10.6900   -1.7430 C.2    33  LEU33       0.2260
      4  O         18.8680   -9.9230   -2.6120 O.2    33  LEU33      -0.2867
      5  CB        18.9650   -9.9690    0.6120 C.3    33  LEU33       0.0270
      6  CG        18.4680   -9.5200    1.9940 C.3    33  LEU33       0.0019
      7  CD1       19.6590   -9.2960    2.9210 C.3    33  LEU33       0.0001
      8  CD2       17.6260   -8.2380    1.8580 C.3    33  LEU33       0.0001
      9  N         16.0800   -9.7130   -4.4460 N.3    36  ASN36      -0.1225
     10  CA        16.2140   -8.3030   -4.7980 C.3    36  ASN36       0.1785
     11  C         17.4580   -8.1160   -5.6620 C.2    36  ASN36       0.2597
     12  O         17.4640   -7.3160   -6.6000 O.2    36  ASN36      -0.2718
     13  CB        16.3310   -7.4440   -3.5360 C.3    36  ASN36       0.1169
     14  CG        14.9920   -7.1930   -2.8860 C.2    36  ASN36       0.2627
     15  OD1       13.9560   -7.5920   -3.4150 O.2    36  ASN36      -0.2716
     16  ND2       15.0010   -6.5300   -1.7340 N.am   36  ASN36      -0.0877
     17  N         18.5120   -8.8620   -5.3380 N.am   37  ALA37      -0.1979
     18  CA        19.7580   -8.7890   -6.0870 C.3    37  ALA37       0.1597
     19  C         19.5280   -9.2660   -7.5210 C.2    37  ALA37       0.2287
     20  O         19.9820   -8.6310   -8.4820 O.2    37  ALA37      -0.2864
     21  CB        20.8340   -9.6380   -5.4100 C.3    37  ALA37       0.0319
     22  N         16.7420   -9.2930   -9.1310 N.3    39  ASP39      -0.1225
     23  CA        15.9020   -8.3050   -9.8020 C.3    39  ASP39       0.1805
     24  C         16.7450   -7.1430  -10.3320 C.2    39  ASP39       0.2597
     25  O         16.5050   -6.6460  -11.4290 O.2    39  ASP39      -0.2718
     26  CB        14.8490   -7.7610   -8.8370 C.3    39  ASP39       0.1424
     27  CG        13.7600   -8.7710   -8.5290 C.2    39  ASP39       0.3668
     28  OD1       13.7230   -9.8430   -9.1700 O.co2  39  ASP39      -0.2456
     29  OD2       12.9350   -8.4910   -7.6420 O.co2  39  ASP39      -0.2456
     30  N         17.7240   -6.7060   -9.5420 N.am   40  ALA40      -0.1979
     31  CA        18.6020   -5.6020   -9.9330 C.3    40  ALA40       0.1597
     32  C         19.4550   -5.9940  -11.1340 C.2    40  ALA40       0.2287
     33  O         19.7340   -5.1690  -12.0120 O.2    40  ALA40      -0.2864
     34  CB        19.5040   -5.2120   -8.7660 C.3    40  ALA40       0.0319
     35  N         17.3620   -5.9280  -14.2730 N.3    43  LYS43      -0.1245
     36  CA        17.2000   -4.5580  -14.7450 C.3    43  LYS43       0.1561
     37  C         18.3710   -4.0480  -15.5740 C.2    43  LYS43       0.2260
     38  O         18.1590   -3.4430  -16.6200 O.2    43  LYS43      -0.2867
     39  CB        16.9700   -3.6010  -13.5720 C.3    43  LYS43       0.0271
     40  CG        15.8730   -4.0180  -12.6140 C.3    43  LYS43       0.0035
     41  CD        14.5220   -4.0540  -13.2840 C.3    43  LYS43       0.0206
     42  CE        13.4060   -4.0780  -12.2420 C.3    43  LYS43       0.1093
     43  NZ        13.6300   -3.0620  -11.1720 N.3    43  LYS43      -0.1314
     44  N         25.6710   -7.4340   -5.4060 N.3    78  ASP78      -0.1239
     45  CA        25.2100   -7.7550   -6.7490 C.3    78  ASP78       0.1674
     46  C         25.7880   -6.7100   -7.6940 C.2    78  ASP78       0.2266
     47  O         26.0830   -5.5910   -7.2720 O.2    78  ASP78      -0.2867
     48  CB        23.6670   -7.7650   -6.8320 C.3    78  ASP78       0.1410
     49  CG        23.0490   -6.3830   -6.6690 C.2    78  ASP78       0.3668
     50  OD1       23.1900   -5.5350   -7.5790 O.co2  78  ASP78      -0.2456
     51  OD2       22.4040   -6.1500   -5.6260 O.co2  78  ASP78      -0.2456
     52  N         21.7210   -3.0510  -11.3960 N.3    81  ILE81      -0.1231
     53  CA        21.5320   -1.6610  -11.7910 C.3    81  ILE81       0.1692
     54  C         22.0060   -0.6140  -10.7810 C.2    81  ILE81       0.2593
     55  O         22.3880    0.4940  -11.1620 O.2    81  ILE81      -0.2718
     56  CB        20.0440   -1.4200  -12.1600 C.3    81  ILE81       0.0266
     57  CG1       19.8940   -0.0900  -12.8950 C.3    81  ILE81       0.0019
     58  CG2       19.1770   -1.4990  -10.9210 C.3    81  ILE81       0.0020
     59  CD1       18.6580   -0.0290  -13.7610 C.3    81  ILE81       0.0001
     60  N         21.9950   -0.9590   -9.4990 N.am   82  GLY82      -0.1942
     61  CA        22.4270   -0.0120   -8.4910 C.3    82  GLY82       0.2014
     62  C         21.4040    1.0850   -8.2490 C.2    82  GLY82       0.2638
     63  O         20.3520    1.1450   -8.9040 O.2    82  GLY82      -0.2714
     64  N         21.7170    1.9610   -7.3010 N.am   83  MET83      -0.1976
     65  CA        20.8300    3.0600   -6.9560 C.3    83  MET83       0.1605
     66  C         21.5910    4.3760   -6.8160 C.2    83  MET83       0.2287
     67  O         22.6240    4.4400   -6.1500 O.2    83  MET83      -0.2864
     68  CB        20.1080    2.7510   -5.6370 C.3    83  MET83       0.0413
     69  CG        18.9950    1.7130   -5.7510 C.3    83  MET83       0.0598
     70  SD        18.2990    1.2790   -4.1430 S.3    83  MET83      -0.1393
     71  CE        19.5690    0.1590   -3.5340 C.3    83  MET83       0.0692
     72  N         13.6000    5.0020   -2.9590 N.3    91  ASN91      -0.1225
     73  CA        13.3060    3.5720   -2.8550 C.3    91  ASN91       0.1785
     74  C         13.4260    2.9240   -1.4830 C.2    91  ASN91       0.2597
     75  O         12.7350    1.9480   -1.2040 O.2    91  ASN91      -0.2718
     76  CB        14.1970    2.7760   -3.8140 C.3    91  ASN91       0.1169
     77  CG        13.9790    3.1410   -5.2630 C.2    91  ASN91       0.2627
     78  OD1       14.6580    2.6200   -6.1490 O.2    91  ASN91      -0.2716
     79  ND2       13.0390    4.0390   -5.5150 N.am   91  ASN91      -0.0877
     80  N         14.3070    3.4390   -0.6330 N.am   92  LEU92      -0.1980
     81  CA        14.5050    2.8380    0.6840 C.3    92  LEU92       0.1596
     82  C         14.1160    3.6940    1.8840 C.2    92  LEU92       0.2287
     83  O         14.8870    3.7800    2.8430 O.2    92  LEU92      -0.2864
     84  CB        15.9730    2.4220    0.8650 C.3    92  LEU92       0.0297
     85  CG        16.6570    1.4780   -0.1240 C.3    92  LEU92       0.0022
     86  CD1       18.1310    1.3400    0.2650 C.3    92  LEU92       0.0001
     87  CD2       15.9780    0.1270   -0.1100 C.3    92  LEU92       0.0001
     88  N          5.3050    2.7850    0.7800 N.3    97  LYS97      -0.1245
     89  CA         5.3280    1.5180    0.0540 C.3    97  LYS97       0.1561
     90  C          3.9250    0.9100    0.1200 C.2    97  LYS97       0.2260
     91  O          3.3760    0.7240    1.2050 O.2    97  LYS97      -0.2867
     92  CB         6.3470    0.5630    0.6810 C.3    97  LYS97       0.0271
     93  CG         7.6610    0.4670   -0.0830 C.3    97  LYS97       0.0035
     94  CD         7.4210    0.3490   -1.5870 C.3    97  LYS97       0.0206
     95  CE         8.2790   -0.7490   -2.2180 C.3    97  LYS97       0.1093
     96  NZ         7.4830   -1.8740   -2.8000 N.3    97  LYS97      -0.1314
     97  N          8.0610  -10.8350    1.0640 N.3   117  GLY117     -0.1225
     98  CA         8.4410  -10.5370   -0.3090 C.3   117  GLY117      0.1811
     99  C          7.2580  -10.3460   -1.2420 C.2   117  GLY117      0.2280
    100  O          7.3010   -9.5040   -2.1400 O.2   117  GLY117     -0.2866
    101  N          6.0100   -6.9930   -1.3400 N.3   120  GLY120     -0.1210
    102  CA         6.9380   -6.0060   -1.8650 C.3   120  GLY120      0.1956
    103  C          7.7900   -5.2540   -0.8570 C.2   120  GLY120      0.2612
    104  O          8.2770   -4.1570   -1.1460 O.2   120  GLY120     -0.2717
    105  N          7.9890   -5.8350    0.3190 N.am  121  VAL121     -0.1965
    106  CA         8.7940   -5.1810    1.3410 C.3   121  VAL121      0.1727
    107  C          9.8600   -6.1320    1.8850 C.2   121  VAL121      0.2617
    108  O         10.3040   -6.0100    3.0280 O.2   121  VAL121     -0.2715
    109  CB         7.9030   -4.6670    2.4990 C.3   121  VAL121      0.0290
    110  CG1        7.2560   -3.3490    2.0990 C.3   121  VAL121      0.0023
    111  CG2        6.8330   -5.6910    2.8410 C.3   121  VAL121      0.0023
    112  N         10.2810   -7.0690    1.0410 N.am  122  GLY122     -0.1940
    113  CA        11.2800   -8.0440    1.4360 C.3   122  GLY122      0.2014
    114  C         12.6100   -7.4960    1.9210 C.2   122  GLY122      0.2639
    115  O         13.2940   -8.1380    2.7140 O.2   122  GLY122     -0.2714
    116  N         12.9870   -6.3150    1.4500 N.am  123  PHE123     -0.1959
    117  CA        14.2480   -5.7110    1.8650 C.3   123  PHE123      0.1771
    118  C         14.3360   -5.6270    3.3930 C.2   123  PHE123      0.2619
    119  O         15.3730   -5.9340    3.9870 O.2   123  PHE123     -0.2715
    120  CB        14.3760   -4.3070    1.2530 C.3   123  PHE123      0.0574
    121  CG        15.4630   -3.4570    1.8720 C.ar  123  PHE123     -0.0200
    122  CD1       16.7790   -3.5510    1.4260 C.ar  123  PHE123     -0.0042
    123  CD2       15.1680   -2.5510    2.8890 C.ar  123  PHE123     -0.0042
    124  CE1       17.7910   -2.7490    1.9880 C.ar  123  PHE123     -0.0003
    125  CE2       16.1670   -1.7510    3.4550 C.ar  123  PHE123     -0.0003
    126  CZ        17.4780   -1.8510    3.0020 C.ar  123  PHE123     -0.0000
    127  N         13.2350   -5.2380    4.0270 N.am  124  TYR124     -0.1974
    128  CA        13.2140   -5.0650    5.4730 C.3   124  TYR124      0.1639
    129  C         13.3180   -6.3330    6.2980 C.2   124  TYR124      0.2290
    130  O         13.4600   -6.2620    7.5150 O.2   124  TYR124     -0.2864
    131  CB        11.9830   -4.2450    5.8670 C.3   124  TYR124      0.0560
    132  CG        11.9800   -2.9060    5.1580 C.ar  124  TYR124     -0.0198
    133  CD1       12.7170   -1.8320    5.6560 C.ar  124  TYR124     -0.0009
    134  CD2       11.3120   -2.7400    3.9410 C.ar  124  TYR124     -0.0009
    135  CE1       12.7960   -0.6240    4.9580 C.ar  124  TYR124      0.0417
    136  CE2       11.3840   -1.5400    3.2360 C.ar  124  TYR124      0.0417
    137  CZ        12.1290   -0.4890    3.7500 C.ar  124  TYR124      0.1957
    138  OH        12.2090    0.6970    3.0540 O.3   124  TYR124     -0.2866
    139  N         25.1700   -3.0170   -5.8860 N.3   170  THR170     -0.1218
    140  CA        24.8190   -2.6840   -4.5200 C.3   170  THR170      0.1862
    141  C         25.3550   -3.7080   -3.5370 C.2   170  THR170      0.2287
    142  O         25.4500   -4.8980   -3.8490 O.2   170  THR170     -0.2866
    143  CB        23.2780   -2.6360   -4.3680 C.3   170  THR170      0.1770
    144  OG1       22.7350   -1.6820   -5.2930 O.3   170  THR170     -0.2211
    145  CG2       22.8800   -2.2600   -2.9400 C.3   170  THR170      0.0375
    146  N         24.6860   -4.9410    0.4210 N.3   172  LEU172     -0.1245
    147  CA        23.8700   -4.8170    1.6130 C.3   172  LEU172      0.1561
    148  C         24.8240   -5.2990    2.6990 C.2   172  LEU172      0.2260
    149  O         25.1600   -6.4850    2.7500 O.2   172  LEU172     -0.2867
    150  CB        22.6360   -5.7170    1.5420 C.3   172  LEU172      0.0270
    151  CG        21.3350   -4.9720    1.2200 C.3   172  LEU172      0.0019
    152  CD1       21.4130   -4.3930   -0.1930 C.3   172  LEU172      0.0001
    153  CD2       20.1500   -5.9240    1.3510 C.3   172  LEU172      0.0001
@<TRIPOS>BOND
     1    38    37    2
     2    37    36    1
     3    36    35    1
     4    36    39    1
     5    59    57    1
     6    39    40    1
     7    41    40    1
     8    41    42    1
     9    57    56    1
    10    42    43    1
    11    56    53    1
    12    56    58    1
    13    33    32    2
    14    53    52    1
    15    53    54    1
    16    25    24    2
    17    55    54    2
    18    32    31    1
    19    54    60   am
    20    24    23    1
    21    24    30   am
    22    31    30    1
    23    31    34    1
    24    23    22    1
    25    23    26    1
    26    60    61    1
    27    28    27   ar
    28    63    62    2
    29    26    27    1
    30    27    29   ar
    31    61    62    1
    32    20    19    2
    33    62    64   am
    34    46    47    2
    35    46    45    1
    36    50    49   ar
    37    19    18    1
    38    64    65    1
    39    65    66    1
    40    65    68    1
    41    48    45    1
    42    48    49    1
    43    66    67    2
    44    45    44    1
    45    49    51   ar
    46    12    11    2
    47    78    77    2
    48    18    21    1
    49    18    17    1
    50   139   140    1
    51    69    68    1
    52    69    70    1
    53    11    17   am
    54    11    10    1
    55    79    77   am
    56   144   143    1
    57    77    76    1
    58    10     9    1
    59    10    13    1
    60   140   143    1
    61   140   141    1
    62   143   145    1
    63    70    71    1
    64   142   141    2
    65    76    73    1
    66    13    14    1
    67    15    14    2
    68    72    73    1
    69    14    16   am
    70    73    74    1
    71    96    95    1
    72     4     3    2
    73    95    94    1
    74   100    99    2
    75   102   101    1
    76   102   103    1
    77     3     2    1
    78    94    93    1
    79    74    75    2
    80    74    80   am
    81    99    98    1
    82   104   103    2
    83   103   105   am
    84    80    81    1
    85     2     1    1
    86     2     5    1
    87    98    97    1
    88   152   151    1
    89    85    87    1
    90    85    86    1
    91    85    84    1
    92    93    92    1
    93    89    90    1
    94    89    92    1
    95    89    88    1
    96    90    91    2
    97   105   106    1
    98   146   147    1
    99     5     6    1
   100    81    84    1
   101    81    82    1
   102   112   113    1
   103   112   107   am
   104   151   153    1
   105   151   150    1
   106   120   117    1
   107   120   121    1
   108   106   107    1
   109   106   109    1
   110   122   121   ar
   111   122   124   ar
   112   113   114    1
   113   116   117    1
   114   116   114   am
   115   150   147    1
   116   147   148    1
   117     8     6    1
   118   117   118    1
   119   121   123   ar
   120    82    83    2
   121   107   108    2
   122   114   115    2
   123   124   126   ar
   124     6     7    1
   125   110   109    1
   126   109   111    1
   127   148   149    2
   128   123   125   ar
   129   126   125   ar
   130   138   137    1
   131   136   137   ar
   132   136   134   ar
   133   118   119    2
   134   118   127   am
   135   137   135   ar
   136   134   132   ar
   137   127   128    1
   138   135   133   ar
   139   132   133   ar
   140   132   131    1
   141   128   131    1
   142   128   129    1
   143   129   130    2
