@<TRIPOS>MOLECULE
tmp/1ankA01.pdb
 209 203 0 0 0
SMALL
GASTEIGER

@<TRIPOS>ATOM
      1  N          0.3530    4.0870   30.3400 N.3     9  PRO9       -0.2102
      2  CA         0.4410    3.9850   28.8680 C.3     9  PRO9        0.1504
      3  C          0.5500    5.4030   28.3120 C.2     9  PRO9        0.2576
      4  O         -0.1710    6.2900   28.7570 O.2     9  PRO9       -0.2718
      5  CB        -0.9170    3.3750   28.4840 C.3     9  PRO9        0.0282
      6  CG        -1.3580    2.6700   29.6920 C.3     9  PRO9        0.0208
      7  CD        -0.9560    3.6160   30.8190 C.3     9  PRO9        0.0893
      8  N          1.4250    5.6500   27.3350 N.am   10  GLY10      -0.1943
      9  CA         1.5210    6.9920   26.7840 C.3    10  GLY10       0.2014
     10  C          2.3530    7.9770   27.5900 C.2    10  GLY10       0.2639
     11  O          2.3780    9.1440   27.2940 O.2    10  GLY10      -0.2714
     12  N          3.1160    7.4700   28.5530 N.am   11  ALA11      -0.1963
     13  CA         3.9780    8.2790   29.3860 C.3    11  ALA11       0.1728
     14  C          5.2300    8.6230   28.6020 C.2    11  ALA11       0.2617
     15  O          5.9360    9.5590   28.9480 O.2    11  ALA11      -0.2715
     16  CB         4.3530    7.4940   30.6280 C.3    11  ALA11       0.0334
     17  N          5.5570    7.8070   27.6020 N.am   12  GLY12      -0.1940
     18  CA         6.7230    8.1030   26.7760 C.3    12  GLY12       0.2014
     19  C          7.9170    7.1820   26.8470 C.2    12  GLY12       0.2639
     20  O          8.9860    7.5050   26.3280 O.2    12  GLY12      -0.2714
     21  N          7.6900    5.9970   27.4340 N.am   13  LYS13      -0.1963
     22  CA         8.6690    4.9110   27.5830 C.3    13  LYS13       0.1728
     23  C          9.2450    4.4320   26.2320 C.2    13  LYS13       0.2617
     24  O         10.4490    4.3560   26.0460 O.2    13  LYS13      -0.2715
     25  CB         7.9560    3.7340   28.2680 C.3    13  LYS13       0.0311
     26  CG         7.1960    4.1410   29.5920 C.3    13  LYS13       0.0038
     27  CD         6.5900    2.9330   30.3030 C.3    13  LYS13       0.0206
     28  CE         5.3910    2.3450   29.5270 C.3    13  LYS13       0.1093
     29  NZ         4.2920    3.3390   29.2490 N.3    13  LYS13      -0.1314
     30  N          8.3760    4.0910   25.2830 N.am   14  GLY14      -0.1940
     31  CA         8.8600    3.6150   23.9980 C.3    14  GLY14       0.2014
     32  C          9.6850    4.6240   23.2470 C.2    14  GLY14       0.2640
     33  O         10.6660    4.2910   22.6290 O.2    14  GLY14      -0.2714
     34  N          9.2360    5.8600   23.2580 N.am   15  THR15      -0.1936
     35  CA         9.9040    6.9650   22.6130 C.3    15  THR15       0.2028
     36  C         11.3330    7.1610   23.1420 C.2    15  THR15       0.2642
     37  O         12.2520    7.4570   22.3640 O.2    15  THR15      -0.2714
     38  CB         9.1280    8.2540   22.9130 C.3    15  THR15       0.1808
     39  OG1        7.9320    8.3100   22.1090 O.3    15  THR15      -0.2208
     40  CG2        9.9490    9.4740   22.6300 C.3    15  THR15       0.0379
     41  N         11.5410    6.9730   24.4490 N.am   16  GLN16      -0.1976
     42  CA        12.8840    7.2060   25.0300 C.3    16  GLN16       0.1601
     43  C         13.7820    5.9750   24.9320 C.2    16  GLN16       0.2287
     44  O         15.0360    6.0960   24.9040 O.2    16  GLN16      -0.2864
     45  CB        12.8080    7.6800   26.4790 C.3    16  GLN16       0.0394
     46  CG        11.8920    8.8840   26.7630 C.3    16  GLN16       0.0908
     47  CD        12.2520   10.1590   26.0120 C.2    16  GLN16       0.2608
     48  OE1       11.3560   10.9130   25.6070 O.2    16  GLN16      -0.2717
     49  NE2       13.5550   10.4400   25.8520 N.am   16  GLN16      -0.0878
     50  N         11.0990   -2.5030   28.2290 N.3    84  ASP84      -0.1239
     51  CA        10.1120   -1.5180   27.8440 C.3    84  ASP84       0.1674
     52  C          8.7080   -2.1280   27.9410 C.2    84  ASP84       0.2266
     53  O          8.1750   -2.6300   26.9370 O.2    84  ASP84      -0.2867
     54  CB        10.3780   -1.0720   26.4090 C.3    84  ASP84       0.1410
     55  CG         9.3150   -0.1580   25.8770 C.2    84  ASP84       0.3668
     56  OD1        8.6080    0.5000   26.6730 O.co2  84  ASP84      -0.2456
     57  OD2        9.1800   -0.0920   24.6350 O.co2  84  ASP84      -0.2456
     58  N          4.9160   -5.7560   34.6190 N.3    88  ARG88      -0.1245
     59  CA         3.6660   -5.0490   34.5970 C.3    88  ARG88       0.1563
     60  C          2.8000   -5.3430   35.8250 C.2    88  ARG88       0.2260
     61  O          1.9000   -4.5770   36.1390 O.2    88  ARG88      -0.2867
     62  CB         2.9410   -5.4310   33.3270 C.3    88  ARG88       0.0307
     63  CG         1.8910   -4.4530   32.8690 C.3    88  ARG88       0.0489
     64  CD         2.5390   -3.2340   32.3090 C.3    88  ARG88       0.2205
     65  NE         3.3030   -3.5680   31.1380 N.pl3  88  ARG88      -0.0865
     66  CZ         2.9470   -3.2170   29.9100 C.cat  88  ARG88       0.5346
     67  NH1        1.8180   -2.5610   29.7100 N.pl3  88  ARG88       0.1354
     68  NH2        3.7230   -3.5190   28.8730 N.pl3  88  ARG88       0.1354
     69  N         -2.5140   11.6630   23.7180 N.3   119  ARG119     -0.1231
     70  CA        -1.1940   11.2010   23.3000 C.3   119  ARG119      0.1694
     71  C         -1.2800    9.8780   22.5450 C.2   119  ARG119      0.2591
     72  O         -0.5560    9.6570   21.5980 O.2   119  ARG119     -0.2718
     73  CB        -0.2010   11.1590   24.4790 C.3   119  ARG119      0.0321
     74  CG         0.3740   12.5550   24.7230 C.3   119  ARG119      0.0489
     75  CD         1.0060   12.8120   26.1500 C.3   119  ARG119      0.2205
     76  NE         2.1190   11.9290   26.4720 N.pl3 119  ARG119     -0.0865
     77  CZ         3.1900   12.2530   27.2000 C.cat 119  ARG119      0.5346
     78  NH1        3.3440   13.4620   27.6830 N.pl3 119  ARG119      0.1354
     79  NH2        4.1170   11.3380   27.4330 N.pl3 119  ARG119      0.1354
     80  N         -2.2720    9.0640   22.8750 N.am  120  ILE120     -0.1980
     81  CA        -2.4690    7.7420   22.2520 C.3   120  ILE120      0.1595
     82  C         -3.2640    7.8320   20.8980 C.2   120  ILE120      0.2287
     83  O         -3.0660    7.0360   19.9670 O.2   120  ILE120     -0.2864
     84  CB        -3.1820    6.7660   23.3390 C.3   120  ILE120      0.0276
     85  CG1       -2.1360    5.9270   24.1210 C.3   120  ILE120      0.0022
     86  CG2       -4.1350    5.7240   22.6810 C.3   120  ILE120      0.0022
     87  CD1       -0.9730    6.7010   24.7080 C.3   120  ILE120      0.0001
     88  N         -0.9520    8.7050   17.9400 N.3   123  ARG123     -0.1245
     89  CA         0.1510    7.7760   17.7950 C.3   123  ARG123      0.1563
     90  C          0.2360    7.0690   16.4400 C.2   123  ARG123      0.2260
     91  O         -0.7280    6.4570   15.9650 O.2   123  ARG123     -0.2867
     92  CB         0.0860    6.7270   18.9310 C.3   123  ARG123      0.0307
     93  CG         1.2740    5.7530   18.9720 C.3   123  ARG123      0.0489
     94  CD         0.9900    4.5380   19.8910 C.3   123  ARG123      0.2205
     95  NE         1.7760    4.6120   21.1090 N.pl3 123  ARG123     -0.0865
     96  CZ         1.5040    4.0190   22.2740 C.cat 123  ARG123      0.5346
     97  NH1        0.3950    3.2930   22.4910 N.pl3 123  ARG123      0.1354
     98  NH2        2.3690    4.2270   23.2490 N.pl3 123  ARG123      0.1354
     99  N          8.0480    5.2500   17.1700 N.3   132  VAL132     -0.1231
    100  CA         6.7570    5.8710   17.3650 C.3   132  VAL132      0.1692
    101  C          6.9010    7.3310   17.0530 C.2   132  VAL132      0.2592
    102  O          8.0090    7.8790   17.0320 O.2   132  VAL132     -0.2718
    103  CB         6.1220    5.6060   18.7620 C.3   132  VAL132      0.0266
    104  CG1        7.1070    4.9640   19.6940 C.3   132  VAL132      0.0020
    105  CG2        5.5760    6.8700   19.3460 C.3   132  VAL132      0.0020
    106  N          5.7750    7.9130   16.6840 N.am  133  TYR133     -0.1962
    107  CA         5.7000    9.2980   16.3260 C.3   133  TYR133      0.1771
    108  C          4.3530    9.7590   16.7670 C.2   133  TYR133      0.2619
    109  O          3.4380    8.9710   17.0380 O.2   133  TYR133     -0.2715
    110  CB         5.7270    9.4800   14.7840 C.3   133  TYR133      0.0574
    111  CG         6.9770    8.9720   14.0630 C.ar  133  TYR133     -0.0198
    112  CD1        7.0960    7.6190   13.7010 C.ar  133  TYR133     -0.0009
    113  CD2        8.0040    9.8300   13.7380 C.ar  133  TYR133     -0.0009
    114  CE1        8.2080    7.1410   13.0410 C.ar  133  TYR133      0.0417
    115  CE2        9.1100    9.3810   13.0890 C.ar  133  TYR133      0.0417
    116  CZ         9.2150    8.0380   12.7350 C.ar  133  TYR133      0.1957
    117  OH        10.3350    7.5860   12.0290 O.3   133  TYR133     -0.2866
    118  N          4.1690   11.0500   16.6550 N.am  134  HIS134     -0.1973
    119  CA         2.9060   11.6160   17.0140 C.3   134  HIS134      0.1656
    120  C          2.5980   12.6270   15.9360 C.2   134  HIS134      0.2291
    121  O          3.4020   13.5210   15.6650 O.2   134  HIS134     -0.2864
    122  CB         3.0230   12.2370   18.4080 C.3   134  HIS134      0.0771
    123  CG         1.7070   12.5690   19.0070 C.ar  134  HIS134      0.0820
    124  ND1        1.0490   13.7370   18.7100 N.ar  134  HIS134     -0.2267
    125  CD2        0.8940   11.8860   19.8530 C.ar  134  HIS134      0.1154
    126  CE1       -0.1130   13.7700   19.3600 C.ar  134  HIS134      0.1986
    127  NE2       -0.2130   12.6540   20.0550 N.ar  134  HIS134     -0.2212
    128  N          2.5490   16.0130   18.3520 N.3   137  PHE137     -0.1227
    129  CA         3.6270   16.2820   19.3300 C.3   137  PHE137      0.1736
    130  C          5.0700   15.8590   18.9280 C.2   137  PHE137      0.2595
    131  O          6.0610   16.2440   19.5770 O.2   137  PHE137     -0.2718
    132  CB         3.2760   15.6180   20.6700 C.3   137  PHE137      0.0547
    133  CG         1.9200   15.9890   21.1820 C.ar  137  PHE137     -0.0202
    134  CD1        1.4460   17.2900   21.0180 C.ar  137  PHE137     -0.0042
    135  CD2        1.1230   15.0660   21.8030 C.ar  137  PHE137     -0.0042
    136  CE1        0.1990   17.6470   21.4700 C.ar  137  PHE137     -0.0003
    137  CE2       -0.1440   15.4220   22.2640 C.ar  137  PHE137     -0.0003
    138  CZ        -0.5880   16.7020   22.0930 C.ar  137  PHE137     -0.0000
    139  N          5.1750   15.0410   17.9000 N.am  138  ASN138     -0.1974
    140  CA         6.4510   14.5350   17.5050 C.3   138  ASN138      0.1688
    141  C          6.1540   13.9050   16.1630 C.2   138  ASN138      0.2292
    142  O          6.1800   12.6890   16.0380 O.2   138  ASN138     -0.2864
    143  CB         6.8620   13.4160   18.4720 C.3   138  ASN138      0.1181
    144  CG         8.3600   13.0980   18.3970 C.2   138  ASN138      0.2629
    145  OD1        8.8470   12.0400   18.8620 O.2   138  ASN138     -0.2716
    146  ND2        9.0960   14.0190   17.8140 N.am  138  ASN138     -0.0877
    147  N         -1.8510    1.4600   16.0340 N.3   156  ARG156     -0.1245
    148  CA        -2.1230    0.2800   16.8330 C.3   156  ARG156      0.1563
    149  C         -3.6220    0.0420   16.9160 C.2   156  ARG156      0.2260
    150  O         -4.3870    0.9830   16.9260 O.2   156  ARG156     -0.2867
    151  CB        -1.5610    0.4700   18.2490 C.3   156  ARG156      0.0307
    152  CG        -0.0350    0.6300   18.3150 C.3   156  ARG156      0.0489
    153  CD         0.4650   -0.0480   19.5460 C.3   156  ARG156      0.2205
    154  NE         1.7420    0.4410   20.0740 N.pl3 156  ARG156     -0.0865
    155  CZ         1.9660    0.5450   21.3820 C.cat 156  ARG156      0.5346
    156  NH1        0.9780    0.2210   22.2100 N.pl3 156  ARG156      0.1354
    157  NH2        3.1470    0.9710   21.8570 N.pl3 156  ARG156      0.1354
    158  N         -7.2900    0.6460   29.8390 N.3   167  ARG167     -0.1245
    159  CA        -5.8550    0.4980   30.1310 C.3   167  ARG167      0.1563
    160  C         -5.3630    1.2800   31.3470 C.2   167  ARG167      0.2260
    161  O         -4.4050    0.9020   31.9910 O.2   167  ARG167     -0.2867
    162  CB        -5.0570    0.8830   28.8820 C.3   167  ARG167      0.0307
    163  CG        -5.1390   -0.1350   27.7380 C.3   167  ARG167      0.0489
    164  CD        -3.9570   -0.0410   26.7910 C.3   167  ARG167      0.2205
    165  NE        -4.2370    0.7570   25.6120 N.pl3 167  ARG167     -0.0865
    166  CZ        -3.2940    1.2140   24.7870 C.cat 167  ARG167      0.5346
    167  NH1       -2.0190    0.9890   25.0560 N.pl3 167  ARG167      0.1354
    168  NH2       -3.6220    1.9260   23.7200 N.pl3 167  ARG167      0.1354
    169  N          7.5160   13.0470   32.4910 N.3   198  GLY198     -0.1210
    170  CA         7.1550   12.8320   31.0920 C.3   198  GLY198      0.1956
    171  C          6.2880   13.8320   30.3440 C.2   198  GLY198      0.2613
    172  O          5.8220   13.5420   29.2440 O.2   198  GLY198     -0.2717
    173  N          6.0290   14.9820   30.9450 N.am  199  THR199     -0.1938
    174  CA         5.2010   16.0240   30.3140 C.3   199  THR199      0.2028
    175  C          6.0920   17.0600   29.6070 C.2   199  THR199      0.2642
    176  O          5.5790   17.9760   28.9300 O.2   199  THR199     -0.2714
    177  CB         4.3450   16.7540   31.3570 C.3   199  THR199      0.1808
    178  OG1        5.1600   17.6950   32.0840 O.3   199  THR199     -0.2208
    179  CG2        3.7750   15.6830   32.3720 C.3   199  THR199      0.0379
    180  N          7.4120   16.9510   29.8280 N.am  200  LYS200     -0.1963
    181  CA         8.3850   17.8530   29.2050 C.3   200  LYS200      0.1713
    182  C          8.4910   17.4700   27.7340 C.2   200  LYS200      0.2458
    183  O          7.9780   16.4290   27.3180 O.2   200  LYS200     -0.2730
    184  CB         9.7680   17.8200   29.9000 C.3   200  LYS200      0.0311
    185  CG         9.7450   18.2610   31.3670 C.3   200  LYS200      0.0038
    186  CD        10.9350   19.1530   31.7850 C.3   200  LYS200      0.0206
    187  CE        11.2450   18.9930   33.2710 C.3   200  LYS200      0.1093
    188  NZ        12.2560   17.9330   33.5160 N.3   200  LYS200     -0.1314
    189  N          9.1360   18.3290   26.9100 N.am  201  PRO201     -0.2716
    190  CA         9.2310   17.9950   25.4910 C.3   201  PRO201      0.1536
    191  C         10.1660   16.8500   25.2310 C.2   201  PRO201      0.2598
    192  O         11.0910   16.6140   25.9940 O.2   201  PRO201     -0.2715
    193  CB         9.7360   19.2940   24.8570 C.3   201  PRO201      0.0310
    194  CG         9.4630   20.3650   25.8960 C.3   201  PRO201      0.0237
    195  CD         9.7590   19.6370   27.1750 C.3   201  PRO201      0.0939
    196  N          9.9560   16.1680   24.1200 N.am  202  VAL202     -0.1978
    197  CA        10.8090   15.0360   23.8210 C.3   202  VAL202      0.1596
    198  C         12.2840   15.2850   24.0790 C.2   202  VAL202      0.2287
    199  O         12.8830   14.5830   24.8930 O.2   202  VAL202     -0.2864
    200  CB        10.5600   14.5350   22.4200 C.3   202  VAL202      0.0276
    201  CG1       11.6930   13.6090   21.9550 C.3   202  VAL202      0.0022
    202  CG2        9.2690   13.8020   22.4040 C.3   202  VAL202      0.0022
    203  N         13.1680   15.2840   27.9600 N.3   205  VAL205     -0.1245
    204  CA        13.1600   14.0910   28.8290 C.3   205  VAL205      0.1561
    205  C         14.4590   13.3140   28.5690 C.2   205  VAL205      0.2260
    206  O         15.0970   12.7840   29.4980 O.2   205  VAL205     -0.2867
    207  CB        11.9070   13.1670   28.5880 C.3   205  VAL205      0.0252
    208  CG1       11.9780   11.9730   29.4780 C.3   205  VAL205      0.0019
    209  CG2       10.6790   13.8950   28.9110 C.3   205  VAL205      0.0019
@<TRIPOS>BOND
     1   117   116    1
     2   116   114   ar
     3   116   115   ar
     4   114   112   ar
     5   115   113   ar
     6   112   111   ar
     7   113   111   ar
     8   111   110    1
     9   110   107    1
    10   121   120    2
    11   120   119    1
    12    91    90    2
    13   147   148    1
    14   142   141    2
    15   141   140    1
    16   107   106    1
    17   107   108    1
    18    90    89    1
    19   118   108   am
    20   118   119    1
    21   106   101   am
    22   108   109    2
    23   148   149    1
    24   148   151    1
    25   149   150    2
    26   119   122    1
    27   102   101    2
    28   101   100    1
    29    99   100    1
    30   100   103    1
    31   140   139    1
    32   140   143    1
    33    89    88    1
    34    89    92    1
    35   146   144   am
    36   139   130   am
    37   151   152    1
    38   152   153    1
    39   128   129    1
    40   144   143    1
    41   144   145    2
    42   122   123    1
    43   124   123   ar
    44   124   126   ar
    45   103   105    1
    46   103   104    1
    47   130   129    1
    48   130   131    2
    49    92    93    1
    50    93    94    1
    51   123   125   ar
    52   129   132    1
    53   126   127   ar
    54   153   154    1
    55   125   127   ar
    56    94    95    1
    57    83    82    2
    58   154   155    2
    59   132   133    1
    60    82    81    1
    61   134   133   ar
    62   134   136   ar
    63    95    96    2
    64   133   135   ar
    65   155   157    1
    66   155   156    1
    67   136   138   ar
    68    72    71    2
    69   135   137   ar
    70   201   200    1
    71   138   137   ar
    72    39    38    1
    73    81    80    1
    74    81    84    1
    75    96    97    1
    76    96    98    1
    77    37    36    2
    78   202   200    1
    79   200   197    1
    80    71    80   am
    81    71    70    1
    82    35    38    1
    83    35    36    1
    84    35    34    1
    85    33    32    2
    86    40    38    1
    87    86    84    1
    88    36    41   am
    89    32    34   am
    90    32    31    1
    91    70    69    1
    92    70    73    1
    93    84    85    1
    94   168   166    1
    95   197   198    1
    96   197   196    1
    97    31    30    1
    98   198   199    2
    99   196   191   am
   100    85    87    1
   101    41    42    1
   102    73    74    1
   103    57    55   ar
   104    74    75    1
   105   166   167    1
   106   166   165    2
   107   193   190    1
   108   193   194    1
   109    44    43    2
   110    43    42    1
   111    42    45    1
   112   191   190    1
   113   191   192    2
   114    30    23   am
   115   190   189    1
   116    48    47    2
   117   165   164    1
   118    49    47   am
   119    55    54    1
   120    55    56   ar
   121   194   195    1
   122    47    46    1
   123    24    23    2
   124    75    76    1
   125    23    22    1
   126    20    19    2
   127    54    51    1
   128    76    77    2
   129    45    46    1
   130    18    19    1
   131    18    17    1
   132     9     8    1
   133     9    10    1
   134   164   163    1
   135    19    21   am
   136   189   195    1
   137   189   182   am
   138    53    52    2
   139    77    79    1
   140    77    78    1
   141    11    10    2
   142   183   182    2
   143     8     3   am
   144    21    22    1
   145    22    25    1
   146    10    12   am
   147    17    14   am
   148   182   181    1
   149   163   162    1
   150    51    52    1
   151    51    50    1
   152   203   204    1
   153    25    26    1
   154     3     4    2
   155     3     2    1
   156     5     2    1
   157     5     6    1
   158    12    13    1
   159   205   204    1
   160   205   206    2
   161   207   204    1
   162   207   209    1
   163   207   208    1
   164    14    15    2
   165    14    13    1
   166     2     1    1
   167    68    66    1
   168   162   159    1
   169   176   175    2
   170   181   180    1
   171   181   184    1
   172   172   171    2
   173    29    28    1
   174    13    16    1
   175    28    27    1
   176    26    27    1
   177   175   180   am
   178   175   174    1
   179     6     7    1
   180    67    66    1
   181   158   159    1
   182   184   185    1
   183    66    65    2
   184   159   160    1
   185   174   173    1
   186   174   177    1
   187     1     7    1
   188   171   173   am
   189   171   170    1
   190   170   169    1
   191    65    64    1
   192   160   161    2
   193   177   178    1
   194   177   179    1
   195   185   186    1
   196   186   187    1
   197    64    63    1
   198    63    62    1
   199   187   188    1
   200    62    59    1
   201    59    58    1
   202    59    60    1
   203    60    61    2
