@<TRIPOS>MOLECULE
tmp/1ao0D01.pdb
 150 146 0 0 0
SMALL
GASTEIGER

@<TRIPOS>ATOM
      1  N         57.3250    1.0480   53.6610 N.3    73  TYR73      -0.1241
      2  CA        57.9540    2.2090   54.2880 C.3    73  TYR73       0.1605
      3  C         57.1630    3.4120   53.8000 C.2    73  TYR73       0.2264
      4  O         56.8290    3.4700   52.6380 O.2    73  TYR73      -0.2867
      5  CB        59.4280    2.3010   53.8130 C.3    73  TYR73       0.0534
      6  CG        60.2130    3.4850   54.3440 C.ar   73  TYR73      -0.0201
      7  CD1       59.8850    4.7980   53.9680 C.ar   73  TYR73      -0.0009
      8  CD2       61.3830    3.2890   55.1100 C.ar   73  TYR73      -0.0009
      9  CE1       60.7000    5.8980   54.3070 C.ar   73  TYR73       0.0417
     10  CE2       62.2330    4.3840   55.4530 C.ar   73  TYR73       0.0417
     11  CZ        61.8870    5.6870   55.0290 C.ar   73  TYR73       0.1957
     12  OH        62.7920    6.7280   55.1720 O.3    73  TYR73      -0.2866
     13  N         73.6900    1.1140   50.6790 N.3   234  MET234     -0.1245
     14  CA        73.0760    1.3820   51.9600 C.3   234  MET234      0.1570
     15  C         72.4640    0.1510   52.5210 C.2   234  MET234      0.2261
     16  O         72.3580    0.0230   53.7240 O.2   234  MET234     -0.2867
     17  CB        72.0130    2.4550   51.8450 C.3   234  MET234      0.0387
     18  CG        72.5960    3.8290   51.6710 C.3   234  MET234      0.0595
     19  SD        73.9730    4.1050   52.7890 S.3   234  MET234     -0.1393
     20  CE        73.2250    4.9060   54.0360 C.3   234  MET234      0.0692
     21  N         73.6150    0.1110   56.2630 N.3   238  TYR238     -0.1227
     22  CA        72.5910    0.6130   57.1490 C.3   238  TYR238      0.1736
     23  C         71.2740   -0.1920   57.0910 C.2   238  TYR238      0.2595
     24  O         70.8520   -0.7570   58.0750 O.2   238  TYR238     -0.2718
     25  CB        72.3290    2.1020   56.8040 C.3   238  TYR238      0.0548
     26  CG        71.1320    2.6770   57.5100 C.ar  238  TYR238     -0.0200
     27  CD1       71.1170    2.7610   58.8940 C.ar  238  TYR238     -0.0009
     28  CD2       69.9420    2.9430   56.8220 C.ar  238  TYR238     -0.0009
     29  CE1       69.9700    3.0720   59.5800 C.ar  238  TYR238      0.0417
     30  CE2       68.7800    3.2480   57.4960 C.ar  238  TYR238      0.0417
     31  CZ        68.7950    3.3070   58.8810 C.ar  238  TYR238      0.1957
     32  OH        67.6270    3.5590   59.5800 O.3   238  TYR238     -0.2866
     33  N         70.7680   -0.4210   55.8900 N.am  239  PHE239     -0.1976
     34  CA        69.3580   -0.6880   55.7240 C.3   239  PHE239      0.1639
     35  C         68.9710   -2.1330   55.9930 C.2   239  PHE239      0.2290
     36  O         67.8970   -2.3920   56.4810 O.2   239  PHE239     -0.2864
     37  CB        68.9140   -0.2430   54.3300 C.3   239  PHE239      0.0560
     38  CG        67.4990    0.2250   54.2690 C.ar  239  PHE239     -0.0200
     39  CD1       67.1780    1.5210   54.6780 C.ar  239  PHE239     -0.0042
     40  CD2       66.4570   -0.7020   54.0310 C.ar  239  PHE239     -0.0042
     41  CE1       65.8140    1.8840   54.9020 C.ar  239  PHE239     -0.0003
     42  CE2       65.0930   -0.3700   54.2320 C.ar  239  PHE239     -0.0003
     43  CZ        64.7640    0.9280   54.6820 C.ar  239  PHE239     -0.0000
     44  N         71.7080    1.4890   64.6250 N.3   279  SER279     -0.1217
     45  CA        72.2610    1.7030   63.3180 C.3   279  SER279      0.1889
     46  C         73.7110    1.2880   63.2130 C.2   279  SER279      0.2288
     47  O         74.1320    0.8310   62.1720 O.2   279  SER279     -0.2866
     48  CB        72.1330    3.1720   62.9260 C.3   279  SER279      0.2089
     49  OG        71.9060    4.0090   64.0620 O.3   279  SER279     -0.2183
     50  N         79.2030    5.8950   63.8200 N.3   341  ASP341     -0.1225
     51  CA        77.8680    5.8040   63.2190 C.3   341  ASP341      0.1805
     52  C         77.9500    5.2650   61.7870 C.2   341  ASP341      0.2598
     53  O         78.9520    5.4670   61.0870 O.2   341  ASP341     -0.2718
     54  CB        77.1600    7.1840   63.2320 C.3   341  ASP341      0.1424
     55  CG        75.6010    7.0790   63.2730 C.2   341  ASP341      0.3668
     56  OD1       75.0470    5.9440   63.1510 O.co2 341  ASP341     -0.2456
     57  OD2       74.9360    8.1460   63.3730 O.co2 341  ASP341     -0.2456
     58  N         76.8800    4.6060   61.3380 N.am  342  ASP342     -0.1960
     59  CA        76.8580    4.0830   59.9710 C.3   342  ASP342      0.1840
     60  C         76.9980    5.1550   58.8990 C.2   342  ASP342      0.2623
     61  O         77.6970    4.9470   57.9190 O.2   342  ASP342     -0.2715
     62  CB        75.5850    3.2480   59.7300 C.3   342  ASP342      0.1450
     63  CG        74.3310    4.0640   59.8250 C.2   342  ASP342      0.3671
     64  OD1       73.9030    4.3460   60.9650 O.co2 342  ASP342     -0.2456
     65  OD2       73.7760    4.4100   58.7600 O.co2 342  ASP342     -0.2456
     66  N         76.3390    6.2930   59.0850 N.am  343  SER343     -0.1936
     67  CA        76.2330    7.2870   58.0280 C.3   343  SER343      0.2055
     68  C         75.8070    8.6210   58.6030 C.2   343  SER343      0.2643
     69  O         75.3810    8.7250   59.7630 O.2   343  SER343     -0.2714
     70  CB        75.2050    6.8340   56.9570 C.3   343  SER343      0.2130
     71  OG        73.8700    6.8770   57.4560 O.3   343  SER343     -0.2179
     72  N         75.8860    9.6390   57.7620 N.am  344  ILE344     -0.1963
     73  CA        75.3560   10.9480   58.0840 C.3   344  ILE344      0.1727
     74  C         74.5140   11.3730   56.9080 C.2   344  ILE344      0.2616
     75  O         74.7960   10.9740   55.7740 O.2   344  ILE344     -0.2715
     76  CB        76.5040   11.9860   58.3580 C.3   344  ILE344      0.0290
     77  CG1       77.2350   11.6240   59.6750 C.3   344  ILE344      0.0022
     78  CG2       75.9240   13.4170   58.4020 C.3   344  ILE344      0.0023
     79  CD1       78.3050   12.5680   60.0680 C.3   344  ILE344      0.0001
     80  N         73.3720   11.9760   57.1950 N.am  345  VAL345     -0.1963
     81  CA        72.4760   12.4070   56.1410 C.3   345  VAL345      0.1727
     82  C         72.2140   13.8990   56.3440 C.2   345  VAL345      0.2616
     83  O         72.9470   14.7340   55.7950 O.2   345  VAL345     -0.2715
     84  CB        71.1610   11.6010   56.1520 C.3   345  VAL345      0.0290
     85  CG1       70.2810   12.0790   55.0390 C.3   345  VAL345      0.0023
     86  CG2       71.4320   10.0800   56.0430 C.3   345  VAL345      0.0023
     87  N         71.2640   14.2390   57.2090 N.am  346  ARG346     -0.1963
     88  CA        71.0330   15.6280   57.5900 C.3   346  ARG346      0.1729
     89  C         72.1070   16.1770   58.5190 C.2   346  ARG346      0.2617
     90  O         72.2810   17.3990   58.6140 O.2   346  ARG346     -0.2715
     91  CB        69.6990   15.7570   58.2860 C.3   346  ARG346      0.0348
     92  CG        68.5630   15.2440   57.4880 C.3   346  ARG346      0.0492
     93  CD        67.3530   15.0660   58.3620 C.3   346  ARG346      0.2205
     94  NE        67.5610   14.0150   59.3610 N.pl3 346  ARG346     -0.0865
     95  CZ        67.3070   14.1640   60.6570 C.cat 346  ARG346      0.5346
     96  NH1       67.0200   15.3590   61.1640 N.pl3 346  ARG346      0.1354
     97  NH2       67.3380   13.1050   61.4430 N.pl3 346  ARG346      0.1354
     98  N         72.6800   15.2790   59.3290 N.am  347  GLY347     -0.1940
     99  CA        73.7040   15.6410   60.2940 C.3   347  GLY347      0.2014
    100  C         73.1440   15.9040   61.6750 C.2   347  GLY347      0.2640
    101  O         73.8850   15.9850   62.6490 O.2   347  GLY347     -0.2714
    102  N         71.8270   15.8670   61.7890 N.am  348  THR348     -0.1936
    103  CA        71.1570   16.3370   62.9710 C.3   348  THR348      0.2028
    104  C         71.3630   15.3790   64.1320 C.2   348  THR348      0.2643
    105  O         71.7950   15.7850   65.1910 O.2   348  THR348     -0.2714
    106  CB        69.6820   16.5670   62.6400 C.3   348  THR348      0.1808
    107  OG1       69.5740   17.8410   61.9870 O.3   348  THR348     -0.2208
    108  CG2       68.8250   16.5240   63.8850 C.3   348  THR348      0.0379
    109  N         71.3200   14.0930   63.8380 N.am  349  THR349     -0.1936
    110  CA        71.5770   13.0730   64.8300 C.3   349  THR349      0.2028
    111  C         72.9840   13.1010   65.4320 C.2   349  THR349      0.2642
    112  O         73.1710   12.9170   66.6250 O.2   349  THR349     -0.2714
    113  CB        71.3130   11.7070   64.2330 C.3   349  THR349      0.1808
    114  OG1       69.9320   11.6350   63.8760 O.3   349  THR349     -0.2208
    115  CG2       71.6470   10.6010   65.2200 C.3   349  THR349      0.0379
    116  N         73.9850   13.2480   64.5940 N.am  350  SER350     -0.1949
    117  CA        75.3730   13.2220   65.0610 C.3   350  SER350      0.1924
    118  C         75.6880   14.4310   65.9320 C.2   350  SER350      0.2314
    119  O         76.3120   14.2810   66.9550 O.2   350  SER350     -0.2863
    120  CB        76.2950   13.1690   63.8400 C.3   350  SER350      0.2116
    121  OG        75.6070   12.5220   62.7500 O.3   350  SER350     -0.2180
    122  N         77.4000   11.5080   52.2600 N.3   374  ILE374     -0.1245
    123  CA        76.2490   11.3470   51.3910 C.3   374  ILE374      0.1561
    124  C         75.8320   12.7100   50.8430 C.2   374  ILE374      0.2260
    125  O         75.3000   13.5680   51.5820 O.2   374  ILE374     -0.2867
    126  CB        75.1040   10.6360   52.1270 C.3   374  ILE374      0.0252
    127  CG1       75.4980    9.1840   52.3870 C.3   374  ILE374      0.0019
    128  CG2       73.8490   10.7160   51.3040 C.3   374  ILE374      0.0019
    129  CD1       74.5310    8.4430   53.2360 C.3   374  ILE374      0.0001
    130  N         62.3210    4.4590   50.8720 N.3   383  ASP383     -0.1225
    131  CA        63.0850    4.1080   52.0800 C.3   383  ASP383      0.1805
    132  C         64.4600    4.7420   52.1170 C.2   383  ASP383      0.2598
    133  O         64.7250    5.5680   53.0050 O.2   383  ASP383     -0.2718
    134  CB        63.2050    2.5790   52.3110 C.3   383  ASP383      0.1424
    135  CG        63.3150    1.7620   51.0270 C.2   383  ASP383      0.3668
    136  OD1       63.6510    2.3090   49.9550 O.co2 383  ASP383     -0.2456
    137  OD2       63.0980    0.5230   51.0990 O.co2 383  ASP383     -0.2456
    138  N         65.1730    4.5740   50.9980 N.am  384  THR384     -0.1939
    139  CA        66.5210    5.0720   50.8020 C.3   384  THR384      0.2028
    140  C         66.6420    6.5700   50.3990 C.2   384  THR384      0.2642
    141  O         67.5950    7.2370   50.7650 O.2   384  THR384     -0.2714
    142  CB        67.2460    4.1610   49.8010 C.3   384  THR384      0.1808
    143  OG1       66.4350    3.9720   48.6370 O.3   384  THR384     -0.2208
    144  CG2       67.4990    2.8000   50.4160 C.3   384  THR384      0.0379
    145  N         65.6300    7.1280   49.7440 N.am  385  SER385     -0.1949
    146  CA        65.5940    8.5650   49.4320 C.3   385  SER385      0.1924
    147  C         65.1570    9.3900   50.6600 C.2   385  SER385      0.2314
    148  O         64.8350    8.8330   51.7220 O.2   385  SER385     -0.2863
    149  CB        64.6560    8.7960   48.2040 C.3   385  SER385      0.2116
    150  OG        64.0740   10.0980   48.0960 O.3   385  SER385     -0.2180
@<TRIPOS>BOND
     1   150   149    1
     2   149   146    1
     3   143   142    1
     4   146   145    1
     5   146   147    1
     6   145   140   am
     7   142   144    1
     8   142   139    1
     9   136   135   ar
    10   140   141    2
    11   140   139    1
    12   147   148    2
    13    13    14    1
    14   139   138    1
    15   124   123    1
    16   124   125    2
    17   130   131    1
    18   138   132   am
    19   135   137   ar
    20   135   134    1
    21   128   126    1
    22   123   126    1
    23   123   122    1
    24    18    17    1
    25    18    19    1
    26    17    14    1
    27    14    15    1
    28   131   132    1
    29   131   134    1
    30   132   133    2
    31   126   127    1
    32   127   129    1
    33    15    16    2
    34     4     3    2
    35    19    20    1
    36     1     2    1
    37     3     2    1
    38     5     2    1
    39     5     6    1
    40     7     9   ar
    41     7     6   ar
    42    40    42   ar
    43    40    38   ar
    44    42    43   ar
    45    38    37    1
    46    38    39   ar
    47     9    11   ar
    48    37    34    1
    49     6     8   ar
    50    39    41   ar
    51    43    41   ar
    52    11    12    1
    53    11    10   ar
    54    85    84    1
    55     8    10   ar
    56    34    33    1
    57    34    35    1
    58    75    74    2
    59    83    82    2
    60    33    23   am
    61    35    36    2
    62    86    84    1
    63    81    84    1
    64    81    82    1
    65    81    80    1
    66    21    22    1
    67    82    87   am
    68    25    22    1
    69    25    26    1
    70    28    30   ar
    71    28    26   ar
    72    74    80   am
    73    74    73    1
    74    70    71    1
    75    70    67    1
    76    23    22    1
    77    23    24    2
    78    87    88    1
    79    92    91    1
    80    92    93    1
    81    30    31   ar
    82    26    27   ar
    83    88    91    1
    84    88    89    1
    85    72    73    1
    86    72    68   am
    87    61    60    2
    88    67    68    1
    89    67    66    1
    90    73    76    1
    91    76    78    1
    92    76    77    1
    93    93    94    1
    94    89    90    2
    95    89    98   am
    96    68    69    2
    97    65    63   ar
    98    31    29   ar
    99    31    32    1
   100    27    29   ar
   101    60    66   am
   102    60    59    1
   103    98    99    1
   104    94    95    2
   105    77    79    1
   106    62    63    1
   107    62    59    1
   108    63    64   ar
   109    59    58    1
   110    99   100    1
   111    95    96    1
   112    95    97    1
   113    53    52    2
   114    58    52   am
   115   100   102   am
   116   100   101    2
   117    52    51    1
   118   102   103    1
   119   107   106    1
   120    47    46    2
   121   106   103    1
   122   106   108    1
   123   121   120    1
   124    48    45    1
   125    48    49    1
   126   103   104    1
   127    56    55   ar
   128    46    45    1
   129    51    54    1
   130    51    50    1
   131    54    55    1
   132    55    57   ar
   133    45    44    1
   134   109   104   am
   135   109   110    1
   136   120   117    1
   137   114   113    1
   138   104   105    2
   139   113   110    1
   140   113   115    1
   141   116   117    1
   142   116   111   am
   143   110   111    1
   144   117   118    1
   145   111   112    2
   146   118   119    2
