@<TRIPOS>MOLECULE
tmp/1ao0D02.pdb
 130 128 0 0 0
SMALL
GASTEIGER

@<TRIPOS>ATOM
      1  N         61.4210   -4.1000   59.8510 N.3    25  HIS25      -0.1241
      2  CA        62.2860   -2.9190   59.9490 C.3    25  HIS25       0.1621
      3  C         62.3580   -2.1160   58.6680 C.2    25  HIS25       0.2264
      4  O         62.7060   -0.9390   58.6960 O.2    25  HIS25      -0.2867
      5  CB        63.6960   -3.3040   60.3180 C.3    25  HIS25       0.0745
      6  CG        64.2760   -4.3530   59.4310 C.ar   25  HIS25       0.0817
      7  ND1       63.8070   -5.6460   59.4730 N.ar   25  HIS25      -0.2268
      8  CD2       65.2200   -4.2260   58.4680 C.ar   25  HIS25       0.1154
      9  CE1       64.4780   -6.2850   58.5280 C.ar   25  HIS25       0.1986
     10  NE2       65.3430   -5.4660   57.8920 N.ar   25  HIS25      -0.2212
     11  N         73.6150    0.1110   56.2630 N.3   238  TYR238     -0.1227
     12  CA        72.5910    0.6130   57.1490 C.3   238  TYR238      0.1736
     13  C         71.2740   -0.1920   57.0910 C.2   238  TYR238      0.2595
     14  O         70.8520   -0.7570   58.0750 O.2   238  TYR238     -0.2718
     15  CB        72.3290    2.1020   56.8040 C.3   238  TYR238      0.0548
     16  CG        71.1320    2.6770   57.5100 C.ar  238  TYR238     -0.0200
     17  CD1       71.1170    2.7610   58.8940 C.ar  238  TYR238     -0.0009
     18  CD2       69.9420    2.9430   56.8220 C.ar  238  TYR238     -0.0009
     19  CE1       69.9700    3.0720   59.5800 C.ar  238  TYR238      0.0417
     20  CE2       68.7800    3.2480   57.4960 C.ar  238  TYR238      0.0417
     21  CZ        68.7950    3.3070   58.8810 C.ar  238  TYR238      0.1957
     22  OH        67.6270    3.5590   59.5800 O.3   238  TYR238     -0.2866
     23  N         70.7680   -0.4210   55.8900 N.am  239  PHE239     -0.1962
     24  CA        69.3580   -0.6880   55.7240 C.3   239  PHE239      0.1771
     25  C         68.9710   -2.1330   55.9930 C.2   239  PHE239      0.2620
     26  O         67.8970   -2.3920   56.4810 O.2   239  PHE239     -0.2715
     27  CB        68.9140   -0.2430   54.3300 C.3   239  PHE239      0.0574
     28  CG        67.4990    0.2250   54.2690 C.ar  239  PHE239     -0.0200
     29  CD1       67.1780    1.5210   54.6780 C.ar  239  PHE239     -0.0042
     30  CD2       66.4570   -0.7020   54.0310 C.ar  239  PHE239     -0.0042
     31  CE1       65.8140    1.8840   54.9020 C.ar  239  PHE239     -0.0003
     32  CE2       65.0930   -0.3700   54.2320 C.ar  239  PHE239     -0.0003
     33  CZ        64.7640    0.9280   54.6820 C.ar  239  PHE239     -0.0000
     34  N         69.8260   -3.0910   55.7040 N.am  240  SER240     -0.1936
     35  CA        69.4240   -4.4640   55.9500 C.3   240  SER240      0.2055
     36  C         69.6350   -4.9000   57.3890 C.2   240  SER240      0.2643
     37  O         70.2860   -4.2140   58.1730 O.2   240  SER240     -0.2714
     38  CB        70.1670   -5.3920   55.0060 C.3   240  SER240      0.2130
     39  OG        69.6010   -5.3020   53.7130 O.3   240  SER240     -0.2179
     40  N         69.0740   -6.0420   57.7530 N.am  241  ARG241     -0.1963
     41  CA        69.2300   -6.5320   59.1140 C.3   241  ARG241      0.1714
     42  C         70.5230   -7.2940   59.2380 C.2   241  ARG241      0.2458
     43  O         70.9650   -7.9360   58.2840 O.2   241  ARG241     -0.2730
     44  CB        68.0640   -7.4290   59.5320 C.3   241  ARG241      0.0347
     45  CG        67.8270   -7.3530   61.0330 C.3   241  ARG241      0.0492
     46  CD        66.4890   -7.8550   61.4030 C.3   241  ARG241      0.2205
     47  NE        66.3450   -9.2850   61.1770 N.pl3 241  ARG241     -0.0865
     48  CZ        65.5800  -10.0830   61.9250 C.cat 241  ARG241      0.5346
     49  NH1       64.3340   -9.7340   62.2010 N.pl3 241  ARG241      0.1354
     50  NH2       65.9260  -11.3460   62.1470 N.pl3 241  ARG241      0.1354
     51  N         71.1610   -7.2180   60.4270 N.am  242  PRO242     -0.2727
     52  CA        72.5610   -7.6430   60.4970 C.3   242  PRO242      0.1402
     53  C         72.7060   -9.1340   60.3500 C.2   242  PRO242      0.2269
     54  O         73.7680   -9.6090   59.9390 O.2   242  PRO242     -0.2865
     55  CB        72.9860   -7.1550   61.8590 C.3   242  PRO242      0.0296
     56  CG        72.2350   -5.8920   61.9960 C.3   242  PRO242      0.0237
     57  CD        70.8600   -6.2730   61.5130 C.3   242  PRO242      0.0939
     58  N         79.6340   -4.8880   58.0370 N.3   255  ARG255     -0.1245
     59  CA        79.5980   -3.6470   58.7840 C.3   255  ARG255      0.1563
     60  C         80.7340   -3.6170   59.8470 C.2   255  ARG255      0.2260
     61  O         81.3890   -2.5870   60.0660 O.2   255  ARG255     -0.2867
     62  CB        78.2220   -3.4930   59.4320 C.3   255  ARG255      0.0307
     63  CG        77.1190   -3.1840   58.4190 C.3   255  ARG255      0.0489
     64  CD        75.7400   -3.3630   59.0170 C.3   255  ARG255      0.2205
     65  NE        74.6560   -2.6370   58.3500 N.pl3 255  ARG255     -0.0865
     66  CZ        73.3890   -3.0470   58.3810 C.cat 255  ARG255      0.5346
     67  NH1       72.9170   -3.5860   59.4900 N.pl3 255  ARG255      0.1354
     68  NH2       72.5570   -2.8220   57.3690 N.pl3 255  ARG255      0.1354
     69  N         75.9830    3.5330   67.9530 N.3   276  VAL276     -0.1231
     70  CA        74.6520    4.0890   68.1610 C.3   276  VAL276      0.1678
     71  C         73.6330    3.0040   67.9590 C.2   276  VAL276      0.2434
     72  O         73.5830    2.4060   66.9060 O.2   276  VAL276     -0.2733
     73  CB        74.3630    5.2080   67.1760 C.3   276  VAL276      0.0265
     74  CG1       73.0540    5.8450   67.5080 C.3   276  VAL276      0.0020
     75  CG2       75.4830    6.2230   67.2150 C.3   276  VAL276      0.0020
     76  N         72.8590    2.6730   68.9900 N.am  277  PRO277     -0.2718
     77  CA        71.8680    1.6200   68.7460 C.3   277  PRO277      0.1535
     78  C         70.6910    2.1600   67.9310 C.2   277  PRO277      0.2599
     79  O         70.1150    3.1890   68.2790 O.2   277  PRO277     -0.2715
     80  CB        71.4880    1.1810   70.1450 C.3   277  PRO277      0.0310
     81  CG        71.7160    2.3960   70.9440 C.3   277  PRO277      0.0237
     82  CD        72.8050    3.1760   70.3680 C.3   277  PRO277      0.0939
     83  N         70.3070    1.4560   66.8710 N.am  278  ASP278     -0.1958
     84  CA        70.9380    0.2000   66.4880 C.3   278  ASP278      0.1840
     85  C         71.6560    0.2800   65.1680 C.2   278  ASP278      0.2622
     86  O         72.1660   -0.7370   64.6600 O.2   278  ASP278     -0.2715
     87  CB        69.9060   -0.9070   66.3870 C.3   278  ASP278      0.1450
     88  CG        69.1080   -1.0600   67.6380 C.2   278  ASP278      0.3671
     89  OD1       69.6820   -0.8790   68.7310 O.co2 278  ASP278     -0.2456
     90  OD2       67.9080   -1.3660   67.5470 O.co2 278  ASP278     -0.2456
     91  N         71.7080    1.4890   64.6250 N.am  279  SER279     -0.1950
     92  CA        72.2610    1.7030   63.3180 C.3   279  SER279      0.1924
     93  C         73.7110    1.2880   63.2130 C.2   279  SER279      0.2314
     94  O         74.1320    0.8310   62.1720 O.2   279  SER279     -0.2863
     95  CB        72.1330    3.1720   62.9260 C.3   279  SER279      0.2116
     96  OG        71.9060    4.0090   64.0620 O.3   279  SER279     -0.2180
     97  N         69.2900    3.4720   73.3960 N.3   301  LYS301     -0.1245
     98  CA        68.0780    3.8140   72.6400 C.3   301  LYS301      0.1561
     99  C         66.8820    3.3240   73.4330 C.2   301  LYS301      0.2260
    100  O         66.7620    2.1200   73.7350 O.2   301  LYS301     -0.2867
    101  CB        68.0520    3.1310   71.2500 C.3   301  LYS301      0.0271
    102  CG        66.8480    3.5280   70.3870 C.3   301  LYS301      0.0035
    103  CD        66.8590    2.8870   68.9770 C.3   301  LYS301      0.0206
    104  CE        66.2330    1.4690   68.9520 C.3   301  LYS301      0.1093
    105  NZ        65.8440    0.9690   67.5760 N.3   301  LYS301     -0.1314
    106  N         64.7890    9.6280   72.0420 N.3   324  LYS324     -0.1231
    107  CA        65.0670    8.2510   71.6920 C.3   324  LYS324      0.1693
    108  C         66.3510    7.7450   72.3290 C.2   324  LYS324      0.2591
    109  O         66.4150    6.6290   72.8350 O.2   324  LYS324     -0.2718
    110  CB        65.1120    8.0930   70.1630 C.3   324  LYS324      0.0285
    111  CG        64.7250    6.6840   69.6790 C.3   324  LYS324      0.0035
    112  CD        64.7630    6.5770   68.1620 C.3   324  LYS324      0.0206
    113  CE        64.2480    5.2150   67.6910 C.3   324  LYS324      0.1093
    114  NZ        64.2280    5.0450   66.2030 N.3   324  LYS324     -0.1314
    115  N         67.3680    8.5830   72.3140 N.am  325  LEU325     -0.1980
    116  CA        68.7020    8.1640   72.7430 C.3   325  LEU325      0.1596
    117  C         69.1400    9.0160   73.8960 C.2   325  LEU325      0.2287
    118  O         68.8280   10.2100   73.9250 O.2   325  LEU325     -0.2864
    119  CB        69.7450    8.3470   71.6140 C.3   325  LEU325      0.0297
    120  CG        69.7560    7.4490   70.3710 C.3   325  LEU325      0.0022
    121  CD1       70.6230    8.1190   69.3300 C.3   325  LEU325      0.0001
    122  CD2       70.2460    6.0580   70.6780 C.3   325  LEU325      0.0001
    123  N         76.8800    4.6060   61.3380 N.3   342  ASP342     -0.1239
    124  CA        76.8580    4.0830   59.9710 C.3   342  ASP342      0.1674
    125  C         76.9980    5.1550   58.8990 C.2   342  ASP342      0.2266
    126  O         77.6970    4.9470   57.9190 O.2   342  ASP342     -0.2867
    127  CB        75.5850    3.2480   59.7300 C.3   342  ASP342      0.1410
    128  CG        74.3310    4.0640   59.8250 C.2   342  ASP342      0.3668
    129  OD1       73.9030    4.3460   60.9650 O.co2 342  ASP342     -0.2456
    130  OD2       73.7760    4.4100   58.7600 O.co2 342  ASP342     -0.2456
@<TRIPOS>BOND
     1    39    38    1
     2    30    32   ar
     3    30    28   ar
     4    32    33   ar
     5    28    27    1
     6    28    29   ar
     7    27    24    1
     8    29    31   ar
     9    33    31   ar
    10    38    35    1
    11    34    35    1
    12    34    25   am
    13    24    23    1
    14    24    25    1
    15    23    13   am
    16    35    36    1
    17    25    26    2
    18    11    12    1
    19    15    12    1
    20    15    16    1
    21    18    20   ar
    22    18    16   ar
    23    13    12    1
    24    13    14    2
    25    68    66    1
    26    36    40   am
    27    36    37    2
    28    20    21   ar
    29    16    17   ar
    30    40    41    1
    31    10     8   ar
    32    10     9   ar
    33   126   125    2
    34    58    59    1
    35    43    42    2
    36    65    66    2
    37    65    64    1
    38    66    67    1
    39    63    64    1
    40    63    62    1
    41     8     6   ar
    42     9     7   ar
    43     3     4    2
    44     3     2    1
    45   130   128   ar
    46    59    62    1
    47    59    60    1
    48    21    19   ar
    49    21    22    1
    50    17    19   ar
    51   125   124    1
    52    41    42    1
    53    41    44    1
    54    42    51   am
    55     6     7   ar
    56     6     5    1
    57    44    45    1
    58   127   128    1
    59   127   124    1
    60   128   129   ar
    61    60    61    2
    62     1     2    1
    63    54    53    2
    64     2     5    1
    65   124   123    1
    66    53    52    1
    67    51    52    1
    68    51    57    1
    69    52    55    1
    70    45    46    1
    71    47    46    1
    72    47    48    2
    73    57    56    1
    74    55    56    1
    75    48    50    1
    76    48    49    1
    77    94    93    2
    78    95    92    1
    79    95    96    1
    80    93    92    1
    81    92    91    1
    82    91    85   am
    83    86    85    2
    84    85    84    1
    85   114   113    1
    86    87    84    1
    87    87    88    1
    88    84    83    1
    89    83    78   am
    90    72    71    2
    91    73    75    1
    92    73    74    1
    93    73    70    1
    94    90    88   ar
    95   105   104    1
    96    88    89   ar
    97   113   112    1
    98    78    79    2
    99    78    77    1
   100    69    70    1
   101    71    70    1
   102    71    76   am
   103   112   111    1
   104    77    76    1
   105    77    80    1
   106   104   103    1
   107   103   102    1
   108    76    82    1
   109   121   120    1
   110   111   110    1
   111    80    81    1
   112   110   107    1
   113    82    81    1
   114   120   122    1
   115   120   119    1
   116   102   101    1
   117   101    98    1
   118   119   116    1
   119   107   106    1
   120   107   108    1
   121   115   108   am
   122   115   116    1
   123   108   109    2
   124    98    97    1
   125    98    99    1
   126   116   117    1
   127    99   100    2
   128   117   118    2
