@<TRIPOS>MOLECULE
tmp/1ao8A00.pdb
 180 179 0 0 0
SMALL
GASTEIGER

@<TRIPOS>ATOM
      1  N        126.9820   -3.3760   -0.2290 N.3     4  LEU4       -0.1231
      2  CA       127.2080   -3.2540    1.2420 C.3     4  LEU4        0.1693
      3  C        126.6190   -1.9320    1.7400 C.2     4  LEU4        0.2592
      4  O        127.0980   -0.8660    1.4000 O.2     4  LEU4       -0.2718
      5  CB       128.7120   -3.2830    1.5310 C.3     4  LEU4        0.0284
      6  CG       128.9490   -3.2800    3.0430 C.3     4  LEU4        0.0019
      7  CD1      128.8440   -4.7080    3.5810 C.3     4  LEU4        0.0001
      8  CD2      130.3450   -2.7260    3.3390 C.3     4  LEU4        0.0001
      9  N        125.5870   -1.9960    2.5430 N.am    5  TRP5       -0.1962
     10  CA       124.9680   -0.7440    3.0660 C.3     5  TRP5        0.1771
     11  C        124.2510   -1.0350    4.3930 C.2     5  TRP5        0.2619
     12  O        124.0170   -2.1770    4.7430 O.2     5  TRP5       -0.2715
     13  CB       123.9840   -0.1810    2.0210 C.3     5  TRP5        0.0590
     14  CG       122.7790   -1.0680    1.8760 C.ar    5  TRP5        0.0006
     15  CD1      121.5300   -0.7360    2.2740 C.ar    5  TRP5        0.0946
     16  CD2      122.6820   -2.4070    1.3030 C.ar    5  TRP5        0.0152
     17  NE1      120.6730   -1.7820    1.9850 N.ar    5  TRP5       -0.2442
     18  CE2      121.3350   -2.8340    1.3870 C.ar    5  TRP5        0.0810
     19  CE3      123.6190   -3.2840    0.7250 C.ar    5  TRP5        0.0012
     20  CZ2      120.9320   -4.0840    0.9160 C.ar    5  TRP5        0.0191
     21  CZ3      123.2150   -4.5440    0.2510 C.ar    5  TRP5        0.0001
     22  CH2      121.8740   -4.9420    0.3470 C.ar    5  TRP5        0.0015
     23  N        123.9050   -0.0090    5.1290 N.am    6  ALA6       -0.1977
     24  CA       123.2060   -0.2170    6.4310 C.3     6  ALA6        0.1597
     25  C        121.8720    0.5320    6.4210 C.2     6  ALA6        0.2287
     26  O        121.8030    1.6890    6.0480 O.2     6  ALA6       -0.2864
     27  CB       124.0790    0.3140    7.5700 C.3     6  ALA6        0.0319
     28  N        123.2690   13.0880    3.2980 N.3    17  GLY17      -0.1210
     29  CA       124.6390   12.6010    2.9560 C.3    17  GLY17       0.1956
     30  C        125.2560   11.9060    4.1720 C.2    17  GLY17       0.2612
     31  O        125.8490   10.8490    4.0560 O.2    17  GLY17      -0.2717
     32  N        125.1190   12.4910    5.3350 N.am   18  HIS18      -0.1961
     33  CA       125.6940   11.8680    6.5640 C.3    18  HIS18       0.1787
     34  C        124.6430   10.9690    7.2170 C.2    18  HIS18       0.2620
     35  O        123.4620   11.0910    6.9520 O.2    18  HIS18      -0.2715
     36  CB       126.1150   12.9640    7.5490 C.3    18  HIS18       0.0785
     37  CG       124.9540   13.8860    7.8100 C.ar   18  HIS18       0.0821
     38  ND1      123.8690   13.5070    8.5850 N.ar   18  HIS18      -0.2267
     39  CD2      124.6940   15.1710    7.4030 C.ar   18  HIS18       0.1154
     40  CE1      123.0140   14.5450    8.6200 C.ar   18  HIS18       0.1986
     41  NE2      123.4680   15.5860    7.9160 N.ar   18  HIS18      -0.2212
     42  N        125.0660   10.0690    8.0680 N.am   19  LEU19      -0.1977
     43  CA       124.0970    9.1580    8.7420 C.3    19  LEU19       0.1596
     44  C        123.3930    9.9160    9.8790 C.2    19  LEU19       0.2287
     45  O        123.9920   10.7720   10.5000 O.2    19  LEU19      -0.2864
     46  CB       124.8450    7.9540    9.3180 C.3    19  LEU19       0.0297
     47  CG       125.0410    6.9030    8.2240 C.3    19  LEU19       0.0022
     48  CD1      126.2430    6.0240    8.5710 C.3    19  LEU19       0.0001
     49  CD2      123.7870    6.0330    8.1240 C.3    19  LEU19       0.0001
     50  N        129.1120   -0.8280   13.6550 N.3    26  ASP26      -0.1225
     51  CA       129.0320   -1.0480   12.1810 C.3    26  ASP26       0.1805
     52  C        130.2830   -0.4760   11.5100 C.2    26  ASP26       0.2598
     53  O        130.7210   -0.9600   10.4830 O.2    26  ASP26      -0.2718
     54  CB       127.7910   -0.3470   11.6270 C.3    26  ASP26       0.1424
     55  CG       127.4670   -0.9030   10.2390 C.2    26  ASP26       0.3668
     56  OD1      128.3390   -0.8580    9.3870 O.co2  26  ASP26      -0.2456
     57  OD2      126.3530   -1.3650   10.0520 O.co2  26  ASP26      -0.2456
     58  N        130.8590    0.5500   12.0850 N.am   27  LEU27      -0.1966
     59  CA       132.0820    1.1600   11.4870 C.3    27  LEU27       0.1728
     60  C        133.2310    0.1510   11.5330 C.2    27  LEU27       0.2616
     61  O        134.0970    0.1450   10.6780 O.2    27  LEU27      -0.2715
     62  CB       132.4700    2.4080   12.2830 C.3    27  LEU27       0.0311
     63  CG       131.6710    3.6080   11.7730 C.3    27  LEU27       0.0022
     64  CD1      131.6950    4.7200   12.8220 C.3    27  LEU27       0.0001
     65  CD2      132.2980    4.1200   10.4740 C.3    27  LEU27       0.0001
     66  N        133.2430   -0.7020   12.5260 N.am   28  HIS28      -0.1959
     67  CA       134.3320   -1.7160   12.6380 C.3    28  HIS28       0.1787
     68  C        134.1710   -2.7680   11.5370 C.2    28  HIS28       0.2620
     69  O        135.1360   -3.3610   11.0910 O.2    28  HIS28      -0.2715
     70  CB       134.2550   -2.3940   14.0070 C.3    28  HIS28       0.0785
     71  CG       134.3590   -1.3540   15.0890 C.ar   28  HIS28       0.0821
     72  ND1      135.2430   -0.2900   15.0080 N.ar   28  HIS28      -0.2267
     73  CD2      133.6950   -1.2000   16.2810 C.ar   28  HIS28       0.1154
     74  CE1      135.0910    0.4490   16.1220 C.ar   28  HIS28       0.1986
     75  NE2      134.1590   -0.0610   16.9320 N.ar   28  HIS28      -0.2212
     76  N        132.9600   -3.0030   11.0990 N.am   29  TYR29      -0.1960
     77  CA       132.7280   -4.0170   10.0270 C.3    29  TYR29       0.1771
     78  C        133.0510   -3.4030    8.6640 C.2    29  TYR29       0.2620
     79  O        133.4780   -4.0860    7.7520 O.2    29  TYR29      -0.2715
     80  CB       131.2630   -4.4580   10.0540 C.3    29  TYR29       0.0574
     81  CG       131.0990   -5.7170    9.2370 C.ar   29  TYR29      -0.0198
     82  CD1      131.8140   -6.8710    9.5780 C.ar   29  TYR29      -0.0009
     83  CD2      130.2290   -5.7310    8.1400 C.ar   29  TYR29      -0.0009
     84  CE1      131.6610   -8.0390    8.8210 C.ar   29  TYR29       0.0417
     85  CE2      130.0750   -6.8990    7.3840 C.ar   29  TYR29       0.0417
     86  CZ       130.7910   -8.0530    7.7240 C.ar   29  TYR29       0.1957
     87  OH       130.6390   -9.2040    6.9780 O.3    29  TYR29      -0.2866
     88  N        132.8510   -2.1180    8.5210 N.am   30  PHE30      -0.1960
     89  CA       133.1430   -1.4460    7.2210 C.3    30  PHE30       0.1771
     90  C        134.6500   -1.4770    6.9600 C.2    30  PHE30       0.2619
     91  O        135.0920   -1.7250    5.8550 O.2    30  PHE30      -0.2715
     92  CB       132.6630    0.0060    7.2810 C.3    30  PHE30       0.0574
     93  CG       132.8140    0.6490    5.9220 C.ar   30  PHE30      -0.0200
     94  CD1      131.9230    0.3280    4.8910 C.ar   30  PHE30      -0.0042
     95  CD2      133.8460    1.5680    5.6940 C.ar   30  PHE30      -0.0042
     96  CE1      132.0630    0.9260    3.6330 C.ar   30  PHE30      -0.0003
     97  CE2      133.9860    2.1660    4.4360 C.ar   30  PHE30      -0.0003
     98  CZ       133.0940    1.8450    3.4050 C.ar   30  PHE30      -0.0000
     99  N        135.4390   -1.2240    7.9730 N.am   31  ARG31      -0.1977
    100  CA       136.9210   -1.2340    7.7970 C.3    31  ARG31       0.1597
    101  C        137.3830   -2.6390    7.4000 C.2    31  ARG31       0.2287
    102  O        138.3360   -2.8000    6.6640 O.2    31  ARG31      -0.2864
    103  CB       137.5900   -0.8270    9.1130 C.3    31  ARG31       0.0334
    104  CG       139.1010   -0.6990    8.9040 C.3    31  ARG31       0.0492
    105  CD       139.8220   -0.9660   10.2270 C.3    31  ARG31       0.2205
    106  NE       141.1890   -1.5080    9.9510 N.pl3  31  ARG31      -0.0865
    107  CZ       142.0720   -1.6690   10.9170 C.cat  31  ARG31       0.5346
    108  NH1      141.7930   -1.3610   12.1640 N.pl3  31  ARG31       0.1354
    109  NH2      143.2520   -2.1450   10.6290 N.pl3  31  ARG31       0.1354
    110  N        129.1210   10.3120   -1.3010 N.3    45  THR45      -0.1218
    111  CA       129.6860    9.4350   -0.2340 C.3    45  THR45       0.1862
    112  C        131.1660    9.7650   -0.0310 C.2    45  THR45       0.2287
    113  O        131.6950    9.6340    1.0570 O.2    45  THR45      -0.2866
    114  CB       129.5420    7.9690   -0.6500 C.3    45  THR45       0.1770
    115  OG1      128.2580    7.7650   -1.2230 O.3    45  THR45      -0.2211
    116  CG2      129.7040    7.0700    0.5770 C.3    45  THR45       0.0375
    117  N        131.3190   12.6350    2.1660 N.3    48  SER48      -0.1202
    118  CA       130.7100   12.2730    3.4790 C.3    48  SER48       0.2020
    119  C        131.8020   11.8140    4.4500 C.2    48  SER48       0.2619
    120  O        131.6600   11.9370    5.6520 O.2    48  SER48      -0.2717
    121  CB       129.7010   11.1420    3.2770 C.3    48  SER48       0.2103
    122  OG       129.2010   10.7270    4.5420 O.3    48  SER48      -0.2182
    123  N        132.8880   11.2860    3.9390 N.am   49  PHE49      -0.1962
    124  CA       133.9880   10.8190    4.8360 C.3    49  PHE49       0.1756
    125  C        134.6860   12.0350    5.4640 C.2    49  PHE49       0.2461
    126  O        134.7740   13.0740    4.8410 O.2    49  PHE49      -0.2730
    127  CB       135.0130   10.0130    4.0280 C.3    49  PHE49       0.0574
    128  CG       134.3160    8.9490    3.2060 C.ar   49  PHE49      -0.0200
    129  CD1      133.3600    8.1100    3.7960 C.ar   49  PHE49      -0.0042
    130  CD2      134.6320    8.8010    1.8500 C.ar   49  PHE49      -0.0042
    131  CE1      132.7220    7.1270    3.0300 C.ar   49  PHE49      -0.0003
    132  CE2      133.9940    7.8170    1.0850 C.ar   49  PHE49      -0.0003
    133  CZ       133.0390    6.9810    1.6750 C.ar   49  PHE49      -0.0000
    134  N        135.1710   11.8780    6.6800 N.am   50  PRO50      -0.2727
    135  CA       135.8900   12.9410    7.4610 C.3    50  PRO50       0.1402
    136  C        137.3400   13.0470    6.9780 C.2    50  PRO50       0.2269
    137  O        137.7950   14.1050    6.5830 O.2    50  PRO50      -0.2865
    138  CB       135.8520   12.5110    8.9240 C.3    50  PRO50       0.0296
    139  CG       135.4400   11.0540    8.9590 C.3    50  PRO50       0.0237
    140  CD       135.1090   10.6320    7.5300 C.3    50  PRO50       0.0939
    141  N        140.6740    7.8010    1.8140 N.3    54  LEU54      -0.1245
    142  CA       140.6580    6.7150    2.8360 C.3    54  LEU54       0.1561
    143  C        141.8150    5.7360    2.5570 C.2    54  LEU54       0.2260
    144  O        141.8320    5.1050    1.5180 O.2    54  LEU54      -0.2867
    145  CB       139.3270    5.9650    2.7530 C.3    54  LEU54       0.0270
    146  CG       138.2410    6.7570    3.4840 C.3    54  LEU54       0.0019
    147  CD1      136.8890    6.0690    3.2920 C.3    54  LEU54       0.0001
    148  CD2      138.5710    6.8190    4.9780 C.3    54  LEU54       0.0001
    149  N        144.4980    2.3670    3.6260 N.3    56  GLU56      -0.1231
    150  CA       144.2370    0.9120    3.9350 C.3    56  GLU56       0.1699
    151  C        143.5600    0.2000    2.7490 C.2    56  GLU56       0.2592
    152  O        143.4710   -1.0140    2.7310 O.2    56  GLU56      -0.2718
    153  CB       143.3630    0.7510    5.1910 C.3    56  GLU56       0.0402
    154  CG       143.8790    1.6670    6.3030 C.3    56  GLU56       0.1161
    155  CD       143.4140    1.1330    7.6600 C.2    56  GLU56       0.3649
    156  OE1      143.6340   -0.0380    7.9200 O.co2  56  GLU56      -0.2457
    157  OE2      142.8460    1.9050    8.4150 O.co2  56  GLU56      -0.2457
    158  N        143.0940    0.9250    1.7560 N.am   57  ARG57      -0.1980
    159  CA       142.4420    0.2640    0.5790 C.3    57  ARG57       0.1597
    160  C        142.3610    1.2630   -0.5790 C.2    57  ARG57       0.2287
    161  O        142.5040    2.4560   -0.3920 O.2    57  ARG57      -0.2864
    162  CB       141.0230   -0.2610    0.9140 C.3    57  ARG57       0.0334
    163  CG       140.4040    0.4560    2.1260 C.3    57  ARG57       0.0492
    164  CD       139.9890    1.8760    1.7390 C.3    57  ARG57       0.2205
    165  NE       140.1130    2.7670    2.9340 N.pl3  57  ARG57      -0.0865
    166  CZ       139.3070    2.6470    3.9730 C.cat  57  ARG57       0.5346
    167  NH1      138.3450    1.7540    4.0000 N.pl3  57  ARG57       0.1354
    168  NH2      139.4710    3.4350    4.9990 N.pl3  57  ARG57       0.1354
    169  N        129.5590    0.6830   -1.9030 N.3    97  ALA97      -0.1245
    170  CA       129.0570    1.2610   -0.6220 C.3    97  ALA97       0.1562
    171  C        127.8730    2.1880   -0.9060 C.2    97  ALA97       0.2260
    172  O        126.8580    2.1330   -0.2380 O.2    97  ALA97      -0.2867
    173  CB       130.1770    2.0560    0.0520 C.3    97  ALA97       0.0290
    174  N        122.9840   -4.3240    6.8180 N.3   116  THR116     -0.1218
    175  CA       122.8780   -4.3690    8.3060 C.3   116  THR116      0.1862
    176  C        121.4930   -3.8730    8.7310 C.2   116  THR116      0.2287
    177  O        121.2110   -2.6900    8.6930 O.2   116  THR116     -0.2866
    178  CB       123.9540   -3.4720    8.9230 C.3   116  THR116      0.1770
    179  OG1      125.1600   -3.6010    8.1820 O.3   116  THR116     -0.2211
    180  CG2      124.1990   -3.8880   10.3750 C.3   116  THR116      0.0375
@<TRIPOS>BOND
     1   169   170    1
     2   110   111    1
     3   115   114    1
     4   171   170    1
     5   171   172    2
     6   114   111    1
     7   114   116    1
     8   170   173    1
     9   160   161    2
    10   160   159    1
    11   111   112    1
    12     1     2    1
    13   112   113    2
    14    21    22   ar
    15    21    19   ar
    16    22    20   ar
    17   159   162    1
    18   159   158    1
    19    19    16   ar
    20   162   163    1
    21    20    18   ar
    22   132   133   ar
    23   132   130   ar
    24     2     5    1
    25     2     3    1
    26    16    18   ar
    27    16    14   ar
    28    18    17   ar
    29     4     3    2
    30   144   143    2
    31     5     6    1
    32   133   131   ar
    33   164   163    1
    34   164   165    1
    35     3     9   am
    36   158   151   am
    37   141   142    1
    38   130   128   ar
    39    14    13    1
    40    14    15   ar
    41    17    15   ar
    42    13    10    1
    43   117   118    1
    44     9    10    1
    45   143   142    1
    46   152   151    2
    47   151   150    1
    48   145   142    1
    49   145   146    1
    50   165   166    2
    51    29    28    1
    52    29    30    1
    53   131   129   ar
    54     6     8    1
    55     6     7    1
    56    10    11    1
    57   128   129   ar
    58   128   127    1
    59   121   118    1
    60   121   122    1
    61   147   146    1
    62    98    96   ar
    63    98    97   ar
    64   118   119    1
    65   146   148    1
    66   149   150    1
    67    96    94   ar
    68   150   153    1
    69   123   119   am
    70   123   124    1
    71   166   167    1
    72   166   168    1
    73   127   124    1
    74    31    30    2
    75    30    32   am
    76    11    12    2
    77    11    23   am
    78    97    95   ar
    79   119   120    2
    80   124   125    1
    81   126   125    2
    82    94    93   ar
    83    23    24    1
    84   153   154    1
    85    32    33    1
    86   125   134   am
    87    95    93   ar
    88    91    90    2
    89    93    92    1
    90    26    25    2
    91   154   155    1
    92    25    24    1
    93    24    27    1
    94    33    34    1
    95    33    36    1
    96   137   136    2
    97   102   101    2
    98   134   135    1
    99   134   140    1
   100   174   175    1
   101    35    34    2
   102    90    89    1
   103    90    99   am
   104   136   135    1
   105    87    86    1
   106    34    42   am
   107    89    92    1
   108    89    88    1
   109    85    86   ar
   110    85    83   ar
   111   101   100    1
   112    39    37   ar
   113    39    41   ar
   114   135   138    1
   115   140   139    1
   116    36    37    1
   117   155   156   ar
   118   155   157   ar
   119    86    84   ar
   120    79    78    2
   121   100    99    1
   122   100   103    1
   123    37    38   ar
   124    41    40   ar
   125    42    43    1
   126    49    47    1
   127    83    81   ar
   128   179   178    1
   129    47    48    1
   130    47    46    1
   131   175   176    1
   132   175   178    1
   133    88    78   am
   134    38    40   ar
   135    78    77    1
   136   177   176    2
   137    43    46    1
   138    43    44    1
   139    84    82   ar
   140   104   103    1
   141   104   105    1
   142   178   180    1
   143   138   139    1
   144    81    82   ar
   145    81    80    1
   146    56    55   ar
   147    44    45    2
   148   106   105    1
   149   106   107    2
   150    77    80    1
   151    77    76    1
   152    57    55   ar
   153    55    54    1
   154    65    63    1
   155    53    52    2
   156   109   107    1
   157    61    60    2
   158   107   108    1
   159    69    68    2
   160    76    68   am
   161    59    60    1
   162    59    58    1
   163    59    62    1
   164    52    58   am
   165    52    51    1
   166    60    66   am
   167    68    67    1
   168    54    51    1
   169    63    62    1
   170    63    64    1
   171    51    50    1
   172    66    67    1
   173    67    70    1
   174    70    71    1
   175    72    71   ar
   176    72    74   ar
   177    71    73   ar
   178    74    75   ar
   179    73    75   ar
