@<TRIPOS>MOLECULE
tmp/1aodA00.pdb
 97 91 0 0 0
SMALL
GASTEIGER

@<TRIPOS>ATOM
      1  N         30.6520   34.6650   27.5200 N.3    25  HIS25      -0.1241
      2  CA        30.4970   33.2430   27.7910 C.3    25  HIS25       0.1621
      3  C         29.7110   33.1030   29.0910 C.2    25  HIS25       0.2264
      4  O         30.0290   33.7690   30.0800 O.2    25  HIS25      -0.2867
      5  CB        31.8800   32.5960   27.9260 C.3    25  HIS25       0.0745
      6  CG        31.8760   31.2750   28.6300 C.ar   25  HIS25       0.0817
      7  ND1       32.3190   31.1240   29.9280 N.ar   25  HIS25      -0.2268
      8  CD2       31.5130   30.0400   28.2090 C.ar   25  HIS25       0.1154
      9  CE1       32.2340   29.8520   30.2740 C.ar   25  HIS25       0.1986
     10  NE2       31.7490   29.1750   29.2520 N.ar   25  HIS25      -0.2212
     11  N         21.9250   29.7460   29.1130 N.3    64  ARG64      -0.1245
     12  CA        21.7430   28.3240   29.3920 C.3    64  ARG64       0.1563
     13  C         20.5360   28.0870   30.2980 C.2    64  ARG64       0.2260
     14  O         20.4770   28.5840   31.4260 O.2    64  ARG64      -0.2867
     15  CB        23.0340   27.7640   29.9800 C.3    64  ARG64       0.0307
     16  CG        24.2110   28.0780   29.0780 C.3    64  ARG64       0.0489
     17  CD        25.5280   27.5920   29.6020 C.3    64  ARG64       0.2205
     18  NE        26.5970   27.9100   28.6600 N.pl3  64  ARG64      -0.0865
     19  CZ        27.8850   27.6640   28.8750 C.cat  64  ARG64       0.5346
     20  NH1       28.2730   27.0890   30.0060 N.pl3  64  ARG64       0.1354
     21  NH2       28.7890   28.0070   27.9650 N.pl3  64  ARG64       0.1354
     22  N         23.1570   32.2150   21.7280 N.3   104  ARG104     -0.1245
     23  CA        23.2900   30.7800   21.8700 C.3   104  ARG104      0.1563
     24  C         22.3510   30.3930   23.0040 C.2   104  ARG104      0.2260
     25  O         22.4000   30.9880   24.0850 O.2   104  ARG104     -0.2867
     26  CB        24.7220   30.4080   22.2510 C.3   104  ARG104      0.0307
     27  CG        24.9140   28.9390   22.5640 C.3   104  ARG104      0.0489
     28  CD        26.2670   28.7270   23.1910 C.3   104  ARG104      0.2205
     29  NE        26.5330   27.3290   23.4930 N.pl3 104  ARG104     -0.0865
     30  CZ        27.6450   26.8960   24.0720 C.cat 104  ARG104      0.5346
     31  NH1       28.5960   27.7560   24.4180 N.pl3 104  ARG104      0.1354
     32  NH2       27.8190   25.6000   24.2840 N.pl3 104  ARG104      0.1354
     33  N         21.3310   27.1700   25.1320 N.3   106  LYS106     -0.1245
     34  CA        21.6450   25.7900   25.4550 C.3   106  LYS106      0.1561
     35  C         20.7390   25.2000   26.5170 C.2   106  LYS106      0.2260
     36  O         20.2880   25.8920   27.4220 O.2   106  LYS106     -0.2867
     37  CB        23.0950   25.6820   25.9230 C.3   106  LYS106      0.0271
     38  CG        23.5060   24.2830   26.3150 C.3   106  LYS106      0.0035
     39  CD        24.9460   24.2260   26.7790 C.3   106  LYS106      0.0206
     40  CE        25.3220   22.7970   27.1130 C.3   106  LYS106      0.1093
     41  NZ        26.7490   22.6710   27.4950 N.3   106  LYS106     -0.1314
     42  N         20.9190   24.8790   20.7470 N.3   157  GLU157     -0.1245
     43  CA        21.7370   23.7490   21.1570 C.3   157  GLU157      0.1567
     44  C         20.9480   22.8870   22.1310 C.2   157  GLU157      0.2260
     45  O         20.6690   23.2990   23.2580 O.2   157  GLU157     -0.2867
     46  CB        23.0350   24.2060   21.8200 C.3   157  GLU157      0.0388
     47  CG        23.9750   23.0460   22.1350 C.3   157  GLU157      0.1160
     48  CD        25.2150   23.4610   22.8960 C.2   157  GLU157      0.3649
     49  OE1       25.3130   24.6390   23.2900 O.co2 157  GLU157     -0.2457
     50  OE2       26.0950   22.6010   23.1080 O.co2 157  GLU157     -0.2457
     51  N         23.2170   25.4930   16.6110 N.3   175  PHE175     -0.1241
     52  CA        24.5420   25.7710   17.1610 C.3   175  PHE175      0.1605
     53  C         25.3950   24.5760   16.7650 C.2   175  PHE175      0.2264
     54  O         25.0370   23.4290   17.0440 O.2   175  PHE175     -0.2867
     55  CB        24.4960   25.8970   18.6960 C.3   175  PHE175      0.0534
     56  CG        25.8390   26.1880   19.3290 C.ar  175  PHE175     -0.0203
     57  CD1       26.3230   27.4920   19.4070 C.ar  175  PHE175     -0.0042
     58  CD2       26.6210   25.1570   19.8520 C.ar  175  PHE175     -0.0042
     59  CE1       27.5680   27.7630   19.9940 C.ar  175  PHE175     -0.0003
     60  CE2       27.8650   25.4200   20.4400 C.ar  175  PHE175     -0.0003
     61  CZ        28.3370   26.7250   20.5120 C.ar  175  PHE175     -0.0000
     62  N         36.2950   25.8750   21.2850 N.3   184  ASP184     -0.1239
     63  CA        35.7880   25.7910   22.6430 C.3   184  ASP184      0.1674
     64  C         36.6080   24.8430   23.5160 C.2   184  ASP184      0.2266
     65  O         36.0920   23.8600   24.0540 O.2   184  ASP184     -0.2867
     66  CB        34.3160   25.3730   22.6190 C.3   184  ASP184      0.1410
     67  CG        33.6460   25.5060   23.9680 C.2   184  ASP184      0.3668
     68  OD1       34.0010   26.4330   24.7300 O.co2 184  ASP184     -0.2456
     69  OD2       32.7590   24.6780   24.2570 O.co2 184  ASP184     -0.2456
     70  N         37.6960   24.5690   26.6010 N.3   186  TYR186     -0.1241
     71  CA        37.4810   25.0880   27.9430 C.3   186  TYR186      0.1605
     72  C         38.1070   24.2390   29.0470 C.2   186  TYR186      0.2264
     73  O         38.5150   24.7660   30.0820 O.2   186  TYR186     -0.2867
     74  CB        35.9810   25.1980   28.2050 C.3   186  TYR186      0.0534
     75  CG        35.3070   23.8560   28.3340 C.ar  186  TYR186     -0.0201
     76  CD1       34.8790   23.1620   27.2100 C.ar  186  TYR186     -0.0009
     77  CD2       35.1330   23.2620   29.5830 C.ar  186  TYR186     -0.0009
     78  CE1       34.2950   21.9050   27.3240 C.ar  186  TYR186      0.0417
     79  CE2       34.5510   22.0050   29.7110 C.ar  186  TYR186      0.0417
     80  CZ        34.1340   21.3320   28.5790 C.ar  186  TYR186      0.1957
     81  OH        33.5550   20.0910   28.7030 O.3   186  TYR186     -0.2866
     82  N         36.1940   31.0870   21.7110 N.3   216  HIS216     -0.1241
     83  CA        36.1370   31.2240   23.1700 C.3   216  HIS216      0.1621
     84  C         37.4530   31.5820   23.8330 C.2   216  HIS216      0.2264
     85  O         38.4180   30.8290   23.7550 O.2   216  HIS216     -0.2867
     86  CB        35.6260   29.9410   23.8250 C.3   216  HIS216      0.0745
     87  CG        34.1580   29.7190   23.6610 C.ar  216  HIS216      0.0817
     88  ND1       33.6230   29.0390   22.5860 N.ar  216  HIS216     -0.2268
     89  CD2       33.1080   30.0890   24.4310 C.ar  216  HIS216      0.1154
     90  CE1       32.3090   29.0020   22.7030 C.ar  216  HIS216      0.1986
     91  NE2       31.9700   29.6320   23.8140 N.ar  216  HIS216     -0.2212
     92  N         37.3910   32.0900   26.9970 N.3   218  SER218     -0.1217
     93  CA        37.0900   31.4750   28.2860 C.3   218  SER218      0.1889
     94  C         37.5670   30.0310   28.5210 C.2   218  SER218      0.2288
     95  O         37.7370   29.2540   27.5810 O.2   218  SER218     -0.2866
     96  CB        35.5870   31.5460   28.5110 C.3   218  SER218      0.2089
     97  OG        34.8990   31.0300   27.3860 O.3   218  SER218     -0.2183
@<TRIPOS>BOND
     1    51    52    1
     2    53    54    2
     3    53    52    1
     4    52    55    1
     5    55    56    1
     6    56    57   ar
     7    56    58   ar
     8    57    59   ar
     9    58    60   ar
    10    59    61   ar
    11    60    61   ar
    12    42    43    1
    13    43    46    1
    14    43    44    1
    15    62    63    1
    16    82    83    1
    17    22    23    1
    18    46    47    1
    19    23    26    1
    20    23    24    1
    21    44    45    2
    22    47    48    1
    23    26    27    1
    24    27    28    1
    25    88    90   ar
    26    88    87   ar
    27    66    63    1
    28    66    67    1
    29    63    64    1
    30    90    91   ar
    31    48    50   ar
    32    48    49   ar
    33    24    25    2
    34    83    86    1
    35    83    84    1
    36    28    29    1
    37    29    30    2
    38    64    65    2
    39    87    86    1
    40    87    89   ar
    41    85    84    2
    42    91    89   ar
    43    67    69   ar
    44    67    68   ar
    45    30    32    1
    46    30    31    1
    47    33    34    1
    48    34    37    1
    49    34    35    1
    50    37    38    1
    51    38    39    1
    52    35    36    2
    53    70    71    1
    54    39    40    1
    55    92    93    1
    56    40    41    1
    57    76    78   ar
    58    76    75   ar
    59    78    80   ar
    60    97    96    1
    61     1     2    1
    62    95    94    2
    63     2     5    1
    64     2     3    1
    65     5     6    1
    66    71    74    1
    67    71    72    1
    68    21    19    1
    69    74    75    1
    70     8     6   ar
    71     8    10   ar
    72    93    96    1
    73    93    94    1
    74    75    77   ar
    75    80    81    1
    76    80    79   ar
    77     6     7   ar
    78    18    19    2
    79    18    17    1
    80    19    20    1
    81    72    73    2
    82    16    17    1
    83    16    15    1
    84     3     4    2
    85    11    12    1
    86    10     9   ar
    87    12    15    1
    88    12    13    1
    89    77    79   ar
    90     7     9   ar
    91    13    14    2
