@<TRIPOS>MOLECULE
tmp/1aoeA01.pdb
 124 117 0 0 0
SMALL
GASTEIGER

@<TRIPOS>ATOM
      1  N         25.5400    2.9350    5.0160 N.3     9  ILE9       -0.1231
      2  CA        25.6420    2.5390    3.5470 C.3     9  ILE9        0.1692
      3  C         25.6130    1.0280    3.5740 C.2     9  ILE9        0.2592
      4  O         26.3790    0.3550    4.2810 O.2     9  ILE9       -0.2718
      5  CB        26.8970    3.1540    2.8850 C.3     9  ILE9        0.0266
      6  CG1       26.9950    2.6830    1.4050 C.3     9  ILE9        0.0019
      7  CG2       28.2490    2.8690    3.6850 C.3     9  ILE9        0.0020
      8  CD1       27.9590    3.6240    0.5600 C.3     9  ILE9        0.0001
      9  N         24.7310    0.4740    2.7160 N.am   10  VAL10      -0.1966
     10  CA        24.5270   -0.9790    2.6320 C.3    10  VAL10       0.1727
     11  C         23.9680   -1.3780    1.2370 C.2    10  VAL10       0.2616
     12  O         23.3710   -0.5370    0.5590 O.2    10  VAL10      -0.2715
     13  CB        23.5490   -1.3790    3.7810 C.3    10  VAL10       0.0290
     14  CG1       22.1910   -0.6450    3.6530 C.3    10  VAL10       0.0023
     15  CG2       23.3030   -2.8810    3.9390 C.3    10  VAL10       0.0023
     16  N         24.2460   -2.6470    0.9320 N.am   11  ALA11      -0.1977
     17  CA        23.6860   -3.2510   -0.3120 C.3    11  ALA11       0.1597
     18  C         22.7380   -4.3800    0.1180 C.2    11  ALA11       0.2287
     19  O         23.1670   -5.2820    0.8730 O.2    11  ALA11      -0.2864
     20  CB        24.8600   -3.8560   -1.1140 C.3    11  ALA11       0.0319
     21  N         29.2340  -11.9080    1.8850 N.3    25  MET25      -0.1245
     22  CA        28.1650  -11.2830    1.0490 C.3    25  MET25       0.1570
     23  C         27.7150  -12.3710    0.0620 C.2    25  MET25       0.2261
     24  O         28.5390  -13.1830   -0.4100 O.2    25  MET25      -0.2867
     25  CB        28.5280   -9.9870    0.3870 C.3    25  MET25       0.0387
     26  CG        28.7760   -8.9050    1.4230 C.3    25  MET25       0.0595
     27  SD        29.3810   -7.4270    0.5850 S.3    25  MET25      -0.1393
     28  CE        27.8850   -6.7930   -0.1610 C.3    25  MET25       0.0692
     29  N         29.5550   -2.3030   -7.8920 N.3    32  GLU32      -0.1231
     30  CA        28.9970   -1.8890   -6.5630 C.3    32  GLU32       0.1699
     31  C         30.1010   -1.7120   -5.5570 C.2    32  GLU32       0.2592
     32  O         30.1010   -0.6830   -4.8440 O.2    32  GLU32      -0.2718
     33  CB        27.9930   -2.9470   -6.0470 C.3    32  GLU32       0.0402
     34  CG        26.8710   -2.4040   -5.1450 C.3    32  GLU32       0.1161
     35  CD        27.2830   -1.9930   -3.7570 C.2    32  GLU32       0.3649
     36  OE1       28.1350   -2.6210   -3.1550 O.co2  32  GLU32      -0.2457
     37  OE2       26.6730   -1.0070   -3.2790 O.co2  32  GLU32      -0.2457
     38  N         31.0850   -2.6170   -5.5210 N.am   33  ILE33      -0.1980
     39  CA        32.2460   -2.4490   -4.5890 C.3    33  ILE33       0.1595
     40  C         33.0200   -1.1540   -4.9340 C.2    33  ILE33       0.2287
     41  O         33.4970   -0.4660   -4.0330 O.2    33  ILE33      -0.2864
     42  CB        33.1770   -3.7170   -4.6800 C.3    33  ILE33       0.0276
     43  CG1       32.4320   -5.0060   -4.3810 C.3    33  ILE33       0.0022
     44  CG2       34.5260   -3.5520   -3.9490 C.3    33  ILE33       0.0022
     45  CD1       32.0140   -5.3740   -2.9690 C.3    33  ILE33       0.0001
     46  N         31.7330    1.6400   -6.3130 N.3    35  TYR35      -0.1227
     47  CA        30.8960    2.7670   -5.8150 C.3    35  TYR35       0.1736
     48  C         31.1320    2.9420   -4.2720 C.2    35  TYR35       0.2595
     49  O         31.2830    4.0680   -3.8130 O.2    35  TYR35      -0.2718
     50  CB        29.4280    2.3810   -6.0570 C.3    35  TYR35       0.0548
     51  CG        28.3800    3.2020   -5.3350 C.ar   35  TYR35      -0.0200
     52  CD1       28.0720    4.4530   -5.8670 C.ar   35  TYR35      -0.0009
     53  CD2       27.7430    2.7740   -4.1650 C.ar   35  TYR35      -0.0009
     54  CE1       27.1180    5.2720   -5.2960 C.ar   35  TYR35       0.0417
     55  CE2       26.7960    3.6350   -3.5490 C.ar   35  TYR35       0.0417
     56  CZ        26.5060    4.8480   -4.1350 C.ar   35  TYR35       0.1957
     57  OH        25.5250    5.7330   -3.6450 O.3    35  TYR35      -0.2866
     58  N         31.0430    1.8100   -3.6080 N.am   36  PHE36      -0.1976
     59  CA        31.2740    1.8690   -2.0930 C.3    36  PHE36       0.1639
     60  C         32.6080    2.5750   -1.7960 C.2    36  PHE36       0.2290
     61  O         32.7080    3.4350   -0.8960 O.2    36  PHE36      -0.2864
     62  CB        31.1710    0.4570   -1.5380 C.3    36  PHE36       0.0560
     63  CG        31.7140    0.3390   -0.1040 C.ar   36  PHE36      -0.0200
     64  CD1       30.9320    0.8210    0.9530 C.ar   36  PHE36      -0.0042
     65  CD2       33.0100   -0.1220    0.0920 C.ar   36  PHE36      -0.0042
     66  CE1       31.4450    0.7380    2.2620 C.ar   36  PHE36      -0.0003
     67  CE2       33.5320   -0.1790    1.4060 C.ar   36  PHE36      -0.0003
     68  CZ        32.7260    0.2360    2.4750 C.ar   36  PHE36      -0.0000
     69  N         32.6550   -7.9160   10.9650 N.3    58  THR58      -0.1218
     70  CA        32.9310   -7.3620    9.6230 C.3    58  THR58       0.1862
     71  C         34.4290   -7.0740    9.4430 C.2    58  THR58       0.2287
     72  O         35.0120   -7.4420    8.4080 O.2    58  THR58      -0.2866
     73  CB        32.0340   -6.1320    9.2440 C.3    58  THR58       0.1770
     74  OG1       30.6440   -6.6900    9.2380 O.3    58  THR58      -0.2211
     75  CG2       32.3180   -5.6200    7.7990 C.3    58  THR58       0.0375
     76  N         36.3670  -10.1100    8.8030 N.3    61  SER61      -0.1202
     77  CA        36.0420  -10.7480    7.5250 C.3    61  SER61       0.2020
     78  C         36.9090  -10.2100    6.3970 C.2    61  SER61       0.2618
     79  O         36.9640  -10.8690    5.3180 O.2    61  SER61      -0.2717
     80  CB        34.5380  -10.6090    7.2140 C.3    61  SER61       0.2103
     81  OG        34.2200   -9.3320    6.6840 O.3    61  SER61      -0.2182
     82  N         37.5690   -9.1040    6.5590 N.am   62  ILE62      -0.1979
     83  CA        38.4500   -8.4960    5.5080 C.3    62  ILE62       0.1595
     84  C         39.8320   -9.1660    5.7600 C.2    62  ILE62       0.2287
     85  O         40.3020   -9.2190    6.9020 O.2    62  ILE62      -0.2864
     86  CB        38.5610   -6.9570    5.7300 C.3    62  ILE62       0.0276
     87  CG1       37.1490   -6.3180    5.7690 C.3    62  ILE62       0.0022
     88  CG2       39.5180   -6.2740    4.7100 C.3    62  ILE62       0.0022
     89  CD1       37.0710   -4.8790    6.2820 C.3    62  ILE62       0.0001
     90  N         40.9290   -0.3410    5.7360 N.3    69  LEU69      -0.1245
     91  CA        40.5900    0.1430    4.3510 C.3    69  LEU69       0.1561
     92  C         41.3230    1.4680    4.1730 C.2    69  LEU69       0.2260
     93  O         41.2840    2.3990    4.9800 O.2    69  LEU69      -0.2867
     94  CB        39.0610    0.2780    4.2940 C.3    69  LEU69       0.0270
     95  CG        38.2460   -0.9380    4.6060 C.3    69  LEU69       0.0019
     96  CD1       36.7720   -0.4680    4.6270 C.3    69  LEU69       0.0001
     97  CD2       38.4820   -2.0500    3.6190 C.3    69  LEU69       0.0001
     98  N         29.3330    1.0370    8.0200 N.3   112  ILE112     -0.1245
     99  CA        29.4880    0.0780    6.9350 C.3   112  ILE112      0.1561
    100  C         29.1240   -1.3530    7.1600 C.2   112  ILE112      0.2260
    101  O         29.3520   -2.2280    6.2720 O.2   112  ILE112     -0.2867
    102  CB        30.8940    0.3000    6.2310 C.3   112  ILE112      0.0252
    103  CG1       32.0110   -0.3390    7.1490 C.3   112  ILE112      0.0019
    104  CG2       31.0870    1.7580    5.8440 C.3   112  ILE112      0.0019
    105  CD1       33.3470   -0.6570    6.3660 C.3   112  ILE112      0.0001
    106  N         24.0410   -2.6360   11.9570 N.3   118  TYR118     -0.1241
    107  CA        22.9790   -1.9410   11.2230 C.3   118  TYR118      0.1605
    108  C         21.6200   -1.8800   11.9780 C.2   118  TYR118      0.2264
    109  O         20.9970   -0.8200   12.0610 O.2   118  TYR118     -0.2867
    110  CB        22.7010   -2.5840    9.8720 C.3   118  TYR118      0.0534
    111  CG        23.7450   -2.4130    8.7910 C.ar  118  TYR118     -0.0201
    112  CD1       24.2810   -1.1640    8.4480 C.ar  118  TYR118     -0.0009
    113  CD2       24.0190   -3.5450    8.0010 C.ar  118  TYR118     -0.0009
    114  CE1       25.1760   -1.0350    7.4040 C.ar  118  TYR118      0.0417
    115  CE2       24.9060   -3.4460    6.9450 C.ar  118  TYR118      0.0417
    116  CZ        25.4430   -2.1900    6.6430 C.ar  118  TYR118      0.1957
    117  OH        26.2980   -2.0970    5.5620 O.3   118  TYR118     -0.2866
    118  N         21.8900    0.3340   -1.5920 N.3   133  THR133     -0.1218
    119  CA        21.9380   -0.2160   -2.9960 C.3   133  THR133      0.1862
    120  C         20.8190   -1.2940   -3.0270 C.2   133  THR133      0.2287
    121  O         20.9160   -2.3210   -2.3510 O.2   133  THR133     -0.2866
    122  CB        23.3290   -0.8400   -3.3470 C.3   133  THR133      0.1770
    123  OG1       24.3320    0.2140   -3.2090 O.3   133  THR133     -0.2211
    124  CG2       23.3070   -1.3950   -4.8090 C.3   133  THR133      0.0375
@<TRIPOS>BOND
     1    29    30    1
     2    30    33    1
     3    30    31    1
     4    46    47    1
     5    50    47    1
     6    50    51    1
     7    33    34    1
     8    52    51   ar
     9    52    54   ar
    10    47    48    1
    11    31    38   am
    12    31    32    2
    13    38    39    1
    14    51    53   ar
    15    54    56   ar
    16    34    35    1
    17    40    39    1
    18    40    41    2
    19   124   122    1
    20    42    39    1
    21    42    43    1
    22    42    44    1
    23    43    45    1
    24    48    49    2
    25    48    58   am
    26    53    55   ar
    27    56    57    1
    28    56    55   ar
    29    35    37   ar
    30    35    36   ar
    31    58    59    1
    32   122   123    1
    33   122   119    1
    34   120   119    1
    35   120   121    2
    36   119   118    1
    37    59    60    1
    38    59    62    1
    39    60    61    2
    40    62    63    1
    41    20    17    1
    42    24    23    2
    43    17    18    1
    44    17    16    1
    45    28    27    1
    46    63    65   ar
    47    63    64   ar
    48    23    22    1
    49    65    67   ar
    50    18    19    2
    51    25    22    1
    52    25    26    1
    53    12    11    2
    54     8     6    1
    55    27    26    1
    56    16    11   am
    57    64    66   ar
    58    22    21    1
    59    11    10    1
    60     6     5    1
    61    67    68   ar
    62    66    68   ar
    63    10     9    1
    64    10    13    1
    65     9     3   am
    66     5     2    1
    67     5     7    1
    68     2     3    1
    69     2     1    1
    70     3     4    2
    71    97    95    1
    72    14    13    1
    73    13    15    1
    74    92    91    1
    75    92    93    2
    76    94    91    1
    77    94    95    1
    78    91    90    1
    79    95    96    1
    80    88    86    1
    81    79    78    2
    82    83    86    1
    83    83    84    1
    84    83    82    1
    85   117   116    1
    86    86    87    1
    87    84    85    2
    88    87    89    1
    89   104   102    1
    90   102    99    1
    91   102   103    1
    92   101   100    2
    93   105   103    1
    94    78    82   am
    95    78    77    1
    96   116   115   ar
    97   116   114   ar
    98    81    80    1
    99    99   100    1
   100    99    98    1
   101   115   113   ar
   102    80    77    1
   103   114   112   ar
   104    77    76    1
   105    75    73    1
   106   113   111   ar
   107    72    71    2
   108   112   111   ar
   109   111   110    1
   110    74    73    1
   111    73    70    1
   112    71    70    1
   113    70    69    1
   114   110   107    1
   115   107   106    1
   116   107   108    1
   117   108   109    2
