@<TRIPOS>MOLECULE
tmp/1aorA00.pdb
 208 199 0 0 0
SMALL
GASTEIGER

@<TRIPOS>ATOM
      1  N         59.2890    7.9820   11.3360 N.3    92  ALA92      -0.1231
      2  CA        58.8120    7.5820   10.0150 C.3    92  ALA92       0.1694
      3  C         59.8500    7.9690    8.9720 C.2    92  ALA92       0.2592
      4  O         60.2170    9.1370    8.8700 O.2    92  ALA92      -0.2718
      5  CB        57.4900    8.2710    9.7180 C.3    92  ALA92       0.0304
      6  N         60.3070    6.9940    8.1940 N.am   93  ASN93      -0.1974
      7  CA        61.3190    7.2150    7.1650 C.3    93  ASN93       0.1688
      8  C         60.6940    7.4100    5.7740 C.2    93  ASN93       0.2292
      9  O         59.6600    6.8000    5.4590 O.2    93  ASN93      -0.2864
     10  CB        62.2790    6.0250    7.1620 C.3    93  ASN93       0.1181
     11  CG        63.5720    6.3090    6.4290 C.2    93  ASN93       0.2629
     12  OD1       63.6140    6.2980    5.2040 O.2    93  ASN93      -0.2716
     13  ND2       64.6450    6.5350    7.1800 N.am   93  ASN93      -0.0877
     14  N         49.3940   10.2240    7.2700 N.3   175  ALA175     -0.1245
     15  CA        50.8180   10.2400    6.9560 C.3   175  ALA175      0.1562
     16  C         51.2730   11.5610    6.3640 C.2   175  ALA175      0.2260
     17  O         50.4500   12.4310    6.0730 O.2   175  ALA175     -0.2867
     18  CB        51.1330    9.1110    5.9670 C.3   175  ALA175      0.0290
     19  N         53.2530   12.9520    3.1760 N.3   177  MET177     -0.1245
     20  CA        53.6770   12.5180    1.8430 C.3   177  MET177      0.1570
     21  C         54.6190   13.5220    1.2010 C.2   177  MET177      0.2261
     22  O         54.5030   14.7330    1.4140 O.2   177  MET177     -0.2867
     23  CB        52.4710   12.3700    0.9090 C.3   177  MET177      0.0387
     24  CG        51.3250   11.5310    1.4460 C.3   177  MET177      0.0595
     25  SD        51.7660    9.8370    1.6760 S.3   177  MET177     -0.1393
     26  CE        52.1040    9.3840    0.0140 C.3   177  MET177      0.0692
     27  N         54.1760   10.3800   -3.9850 N.3   181  HIS181     -0.1241
     28  CA        53.9040    9.0240   -3.5340 C.3   181  HIS181      0.1621
     29  C         54.8980    8.4310   -2.5500 C.2   181  HIS181      0.2264
     30  O         54.8890    7.2220   -2.3020 O.2   181  HIS181     -0.2867
     31  CB        53.7490    8.1020   -4.7430 C.3   181  HIS181      0.0745
     32  CG        52.6210    8.4860   -5.6520 C.ar  181  HIS181      0.0817
     33  ND1       51.3370    8.0170   -5.4880 N.ar  181  HIS181     -0.2268
     34  CD2       52.5830    9.3170   -6.7170 C.ar  181  HIS181      0.1154
     35  CE1       50.5550    8.5470   -6.4100 C.ar  181  HIS181      0.1986
     36  NE2       51.2890    9.3390   -7.1670 N.ar  181  HIS181     -0.2212
     37  N         56.1850    8.1650    1.2530 N.3   183  ALA183     -0.1245
     38  CA        55.5890    8.3550    2.5620 C.3   183  ALA183      0.1562
     39  C         56.3880    8.1840    3.8370 C.2   183  ALA183      0.2260
     40  O         57.1750    7.2400    3.9980 O.2   183  ALA183     -0.2867
     41  CB        54.3400    7.5060    2.6610 C.3   183  ALA183      0.0290
     42  N         55.0900    7.3450    6.4920 N.3   185  GLY185     -0.1210
     43  CA        53.7960    6.7930    6.8100 C.3   185  GLY185      0.1956
     44  C         53.1620    6.3870    8.1100 C.2   185  GLY185      0.2611
     45  O         51.9540    6.5780    8.2340 O.2   185  GLY185     -0.2717
     46  N         53.9070    5.8520    9.0680 N.am  186  ARG186     -0.1979
     47  CA        53.2640    5.3540   10.2760 C.3   186  ARG186      0.1597
     48  C         53.3600    6.1430   11.5670 C.2   186  ARG186      0.2287
     49  O         54.3010    6.8920   11.7780 O.2   186  ARG186     -0.2864
     50  CB        53.7160    3.9140   10.5130 C.3   186  ARG186      0.0334
     51  CG        53.8470    3.1010    9.2370 C.3   186  ARG186      0.0492
     52  CD        53.5770    1.6460    9.4910 C.3   186  ARG186      0.2205
     53  NE        52.1940    1.4340    9.9060 N.pl3 186  ARG186     -0.0865
     54  CZ        51.7650    0.3610   10.5660 C.cat 186  ARG186      0.5346
     55  NH1       52.6140   -0.6130   10.8860 N.pl3 186  ARG186      0.1354
     56  NH2       50.4900    0.2730   10.9290 N.pl3 186  ARG186      0.1354
     57  N         59.1100   -4.0200   -4.2960 N.3   243  THR243     -0.1218
     58  CA        58.9880   -4.7370   -3.0240 C.3   243  THR243      0.1862
     59  C         57.9060   -5.8220   -3.1050 C.2   243  THR243      0.2287
     60  O         57.8890   -6.7780   -2.3240 O.2   243  THR243     -0.2866
     61  CB        58.6970   -3.7770   -1.8540 C.3   243  THR243      0.1770
     62  OG1       57.5020   -3.0310   -2.1160 O.3   243  THR243     -0.2211
     63  CG2       59.8370   -2.7950   -1.6710 C.3   243  THR243      0.0375
     64  N         51.7990    0.2680   -5.7940 N.3   310  PRO310     -0.2102
     65  CA        51.9670    0.0240   -4.3620 C.3   310  PRO310      0.1504
     66  C         53.1730   -0.8370   -3.9890 C.2   310  PRO310      0.2576
     67  O         53.7140   -1.5920   -4.8050 O.2   310  PRO310     -0.2718
     68  CB        50.6690   -0.6840   -4.0000 C.3   310  PRO310      0.0282
     69  CG        50.4270   -1.5300   -5.2220 C.3   310  PRO310      0.0208
     70  CD        50.7110   -0.5640   -6.3460 C.3   310  PRO310      0.0893
     71  N         53.6040   -0.6800   -2.7450 N.am  311  GLU311     -0.1966
     72  CA        54.6960   -1.4590   -2.1980 C.3   311  GLU311      0.1733
     73  C         54.0320   -2.7370   -1.7030 C.2   311  GLU311      0.2616
     74  O         52.8110   -2.8080   -1.5940 O.2   311  GLU311     -0.2715
     75  CB        55.3010   -0.7380   -0.9940 C.3   311  GLU311      0.0429
     76  CG        55.7780    0.6740   -1.2770 C.3   311  GLU311      0.1163
     77  CD        56.9970    0.7390   -2.1800 C.2   311  GLU311      0.3649
     78  OE1       57.6010   -0.3080   -2.5000 O.co2 311  GLU311     -0.2457
     79  OE2       57.3630    1.8640   -2.5620 O.co2 311  GLU311     -0.2457
     80  N         54.8430   -3.7180   -1.3400 N.am  312  TYR312     -0.1960
     81  CA        54.3560   -4.9960   -0.8280 C.3   312  TYR312      0.1771
     82  C         53.3270   -4.8720    0.3020 C.2   312  TYR312      0.2619
     83  O         52.2440   -5.4590    0.2560 O.2   312  TYR312     -0.2715
     84  CB        55.5480   -5.8290   -0.3220 C.3   312  TYR312      0.0574
     85  CG        55.1580   -7.0340    0.5040 C.ar  312  TYR312     -0.0198
     86  CD1       54.5100   -8.1230   -0.0750 C.ar  312  TYR312     -0.0009
     87  CD2       55.4110   -7.0700    1.8740 C.ar  312  TYR312     -0.0009
     88  CE1       54.1210   -9.2180    0.6940 C.ar  312  TYR312      0.0417
     89  CE2       55.0280   -8.1550    2.6480 C.ar  312  TYR312      0.0417
     90  CZ        54.3840   -9.2250    2.0580 C.ar  312  TYR312      0.1957
     91  OH        53.9990  -10.2970    2.8370 O.3   312  TYR312     -0.2866
     92  N         53.6920   -4.1260    1.3340 N.am  313  GLU313     -0.1963
     93  CA        52.8360   -3.9490    2.4970 C.3   313  GLU313      0.1733
     94  C         51.4650   -3.3770    2.1430 C.2   313  GLU313      0.2617
     95  O         50.4570   -3.7780    2.7310 O.2   313  GLU313     -0.2715
     96  CB        53.5440   -3.0700    3.5290 C.3   313  GLU313      0.0429
     97  CG        53.7260   -3.7280    4.8860 C.3   313  GLU313      0.1163
     98  CD        54.8650   -4.7150    4.9450 C.2   313  GLU313      0.3649
     99  OE1       55.9610   -4.4640    4.3950 O.co2 313  GLU313     -0.2457
    100  OE2       54.6700   -5.7510    5.5890 O.co2 313  GLU313     -0.2457
    101  N         51.4250   -2.4810    1.1550 N.am  314  SER314     -0.1950
    102  CA        50.1840   -1.8510    0.7090 C.3   314  SER314      0.1924
    103  C         49.2990   -2.8430   -0.0390 C.2   314  SER314      0.2314
    104  O         48.0850   -2.8460    0.1440 O.2   314  SER314     -0.2863
    105  CB        50.4890   -0.6470   -0.1880 C.3   314  SER314      0.2116
    106  OG        51.3060    0.3030    0.4770 O.3   314  SER314     -0.2180
    107  N         45.5390    2.2740   -3.0660 N.3   334  ASN334     -0.1240
    108  CA        46.8640    2.7760   -2.6940 C.3   334  ASN334      0.1653
    109  C         46.9710    4.2360   -3.1650 C.2   334  ASN334      0.2266
    110  O         47.3560    5.1360   -2.4100 O.2   334  ASN334     -0.2867
    111  CB        47.9520    1.9260   -3.3660 C.3   334  ASN334      0.1155
    112  CG        49.3530    2.3750   -2.9990 C.2   334  ASN334      0.2627
    113  OD1       49.8710    2.0290   -1.9390 O.2   334  ASN334     -0.2716
    114  ND2       49.9690    3.1580   -3.8700 N.am  334  ASN334     -0.0877
    115  N         45.1520    6.5940   -0.9520 N.3   337  CYS337     -0.1221
    116  CA        45.7580    6.7610    0.3660 C.3   337  CYS337      0.1808
    117  C         46.8880    7.7680    0.2460 C.2   337  CYS337      0.2601
    118  O         47.1080    8.5750    1.1480 O.2   337  CYS337     -0.2717
    119  CB        46.3000    5.4400    0.9130 C.3   337  CYS337      0.0970
    120  SG        45.0470    4.3040    1.5240 S.3   337  CYS337     -0.0800
    121  N         47.6160    7.7040   -0.8650 N.am  338  ASP338     -0.1973
    122  CA        48.7090    8.6430   -1.1190 C.3   338  ASP338      0.1709
    123  C         48.1480   10.0470   -1.3100 C.2   338  ASP338      0.2293
    124  O         48.6720   11.0050   -0.7620 O.2   338  ASP338     -0.2864
    125  CB        49.4950    8.2460   -2.3740 C.3   338  ASP338      0.1436
    126  CG        50.4620    7.1010   -2.1300 C.2   338  ASP338      0.3671
    127  OD1       50.6310    6.6660   -0.9710 O.co2 338  ASP338     -0.2456
    128  OD2       51.0720    6.6420   -3.1120 O.co2 338  ASP338     -0.2456
    129  N         47.0080    9.0530    3.8470 N.3   342  LEU342     -0.1231
    130  CA        46.7070    8.0120    4.8170 C.3   342  LEU342      0.1693
    131  C         47.7320    6.9020    4.7370 C.2   342  LEU342      0.2592
    132  O         48.1640    6.5210    3.6430 O.2   342  LEU342     -0.2718
    133  CB        45.3410    7.3890    4.5100 C.3   342  LEU342      0.0284
    134  CG        44.0350    8.1560    4.7000 C.3   342  LEU342      0.0019
    135  CD1       42.9070    7.4050    4.0260 C.3   342  LEU342      0.0001
    136  CD2       43.7630    8.3190    6.1840 C.3   342  LEU342      0.0001
    137  N         48.1060    6.3650    5.8890 N.am  343  ASP343     -0.1960
    138  CA        49.0400    5.2480    5.9260 C.3   343  ASP343      0.1840
    139  C         48.2820    4.0250    5.3790 C.2   343  ASP343      0.2623
    140  O         47.1960    3.6980    5.8670 O.2   343  ASP343     -0.2715
    141  CB        49.4860    5.0080    7.3710 C.3   343  ASP343      0.1450
    142  CG        50.2480    3.7050    7.5540 C.2   343  ASP343      0.3671
    143  OD1       51.0270    3.3090    6.6580 O.co2 343  ASP343     -0.2456
    144  OD2       50.0640    3.0760    8.6160 O.co2 343  ASP343     -0.2456
    145  N         48.8380    3.3590    4.3710 N.am  344  THR344     -0.1937
    146  CA        48.1770    2.1890    3.7950 C.3   344  THR344      0.2028
    147  C         48.0000    1.0300    4.7790 C.2   344  THR344      0.2642
    148  O         46.9580    0.3750    4.7870 O.2   344  THR344     -0.2714
    149  CB        48.9130    1.6440    2.5420 C.3   344  THR344      0.1808
    150  OG1       50.2870    1.4090    2.8450 O.3   344  THR344     -0.2208
    151  CG2       48.8230    2.6090    1.3820 C.3   344  THR344      0.0379
    152  N         49.0010    0.7980    5.6240 N.am  345  ILE345     -0.1977
    153  CA        48.9410   -0.3020    6.5780 C.3   345  ILE345      0.1596
    154  C         47.8990   -0.1100    7.6690 C.2   345  ILE345      0.2287
    155  O         47.0740   -0.9910    7.8830 O.2   345  ILE345     -0.2864
    156  CB        50.3200   -0.6300    7.1710 C.3   345  ILE345      0.0276
    157  CG1       51.3000   -0.9690    6.0480 C.3   345  ILE345      0.0022
    158  CG2       50.2190   -1.8320    8.1130 C.3   345  ILE345      0.0022
    159  CD1       52.7410   -1.1420    6.5220 C.3   345  ILE345      0.0001
    160  N         58.3140    1.8130   18.2150 N.3   444  ARG444     -0.1245
    161  CA        57.1750    2.5530   17.6680 C.3   444  ARG444      0.1563
    162  C         55.8750    1.7360   17.6420 C.2   444  ARG444      0.2260
    163  O         54.8390    2.2360   17.2100 O.2   444  ARG444     -0.2867
    164  CB        57.5160    3.0980   16.2550 C.3   444  ARG444      0.0307
    165  CG        57.0210    2.2300   15.1070 C.3   444  ARG444      0.0489
    166  CD        57.8620    2.3150   13.8460 C.3   444  ARG444      0.2205
    167  NE        57.5010    3.4270   12.9780 N.pl3 444  ARG444     -0.0865
    168  CZ        57.2250    3.3220   11.6760 C.cat 444  ARG444      0.5346
    169  NH1       57.2420    2.1500   11.0540 N.pl3 444  ARG444      0.1354
    170  NH2       56.9860    4.4150   10.9780 N.pl3 444  ARG444      0.1354
    171  N         57.4280   -3.7630   11.4150 N.3   448  HIS448     -0.1226
    172  CA        58.4000   -4.7140   10.8790 C.3   448  HIS448      0.1752
    173  C         59.7420   -4.1570   10.4110 C.2   448  HIS448      0.2596
    174  O         60.7530   -4.8110   10.6190 O.2   448  HIS448     -0.2718
    175  CB        57.7800   -5.4570    9.7020 C.3   448  HIS448      0.0759
    176  CG        57.5030   -4.5710    8.5320 C.ar  448  HIS448      0.0818
    177  ND1       56.6510   -3.4890    8.6030 N.ar  448  HIS448     -0.2268
    178  CD2       58.0240   -4.5580    7.2830 C.ar  448  HIS448      0.1154
    179  CE1       56.6620   -2.8450    7.4520 C.ar  448  HIS448      0.1986
    180  NE2       57.4900   -3.4700    6.6340 N.ar  448  HIS448     -0.2212
    181  N         59.7670   -3.0030    9.7330 N.am  449  ILE449     -0.1966
    182  CA        61.0460   -2.4860    9.2210 C.3   449  ILE449      0.1727
    183  C         62.0600   -1.8800   10.1560 C.2   449  ILE449      0.2616
    184  O         63.1890   -1.6730    9.7380 O.2   449  ILE449     -0.2715
    185  CB        60.9560   -1.5600    7.9580 C.3   449  ILE449      0.0290
    186  CG1       59.6420   -0.8020    7.9080 C.3   449  ILE449      0.0022
    187  CG2       61.3170   -2.3340    6.6790 C.3   449  ILE449      0.0023
    188  CD1       59.6150    0.3920    8.8000 C.3   449  ILE449      0.0001
    189  N         61.6950   -1.5590   11.3930 N.am  450  LYS450     -0.1977
    190  CA        62.7100   -1.0170   12.2940 C.3   450  LYS450      0.1596
    191  C         63.5220   -2.1760   12.9000 C.2   450  LYS450      0.2287
    192  O         64.4660   -1.9500   13.6540 O.2   450  LYS450     -0.2864
    193  CB        62.1090   -0.1110   13.3820 C.3   450  LYS450      0.0298
    194  CG        61.1930    1.0160   12.8670 C.3   450  LYS450      0.0038
    195  CD        61.7660    1.8170   11.6900 C.3   450  LYS450      0.0206
    196  CE        60.6830    2.7200   11.0750 C.3   450  LYS450      0.1093
    197  NZ        61.0350    3.2630    9.7250 N.3   450  LYS450     -0.1314
    198  N         67.2460   -1.0440    2.1190 N.3   496  PHE496     -0.1241
    199  CA        67.4520   -2.0620    1.0860 C.3   496  PHE496      0.1605
    200  C         68.9050   -2.2900    0.6720 C.2   496  PHE496      0.2264
    201  O         69.2110   -3.2630   -0.0230 O.2   496  PHE496     -0.2867
    202  CB        66.5580   -1.8040   -0.1280 C.3   496  PHE496      0.0534
    203  CG        65.0830   -1.8740    0.1830 C.ar  496  PHE496     -0.0203
    204  CD1       64.6310   -2.5060    1.3450 C.ar  496  PHE496     -0.0042
    205  CD2       64.1500   -1.2810   -0.6600 C.ar  496  PHE496     -0.0042
    206  CE1       63.2820   -2.5420    1.6590 C.ar  496  PHE496     -0.0003
    207  CE2       62.7910   -1.3110   -0.3520 C.ar  496  PHE496     -0.0003
    208  CZ        62.3570   -1.9430    0.8090 C.ar  496  PHE496     -0.0000
@<TRIPOS>BOND
     1    36    34   ar
     2    36    35   ar
     3    34    32   ar
     4    35    33   ar
     5    70    64    1
     6    70    69    1
     7    64    65    1
     8    32    33   ar
     9    32    31    1
    10    69    68    1
    11    67    66    2
    12    31    28    1
    13    65    68    1
    14    65    66    1
    15    57    58    1
    16    66    71   am
    17    27    28    1
    18   114   112   am
    19    28    29    1
    20   111   112    1
    21   111   108    1
    22   109   108    1
    23   109   110    2
    24   128   126   ar
    25    59    58    1
    26    59    60    2
    27   107   108    1
    28    58    61    1
    29   112   113    2
    30    71    72    1
    31    79    77   ar
    32    29    30    2
    33    78    77   ar
    34   125   126    1
    35   125   122    1
    36    72    73    1
    37    72    75    1
    38    77    76    1
    39   126   127   ar
    40    62    61    1
    41    61    63    1
    42    73    74    2
    43    73    80   am
    44    80    81    1
    45   123   122    1
    46   123   124    2
    47    76    75    1
    48   122   121    1
    49   115   116    1
    50   121   117   am
    51    81    84    1
    52    81    82    1
    53   205   207   ar
    54   205   203   ar
    55   207   208   ar
    56    84    85    1
    57   105   106    1
    58   105   102    1
    59   202   203    1
    60   202   199    1
    61    86    85   ar
    62    86    88   ar
    63   103   104    2
    64   103   102    1
    65   201   200    2
    66    26    25    1
    67   203   204   ar
    68   117   116    1
    69   117   118    2
    70    83    82    2
    71    82    92   am
    72   116   119    1
    73    85    87   ar
    74   200   199    1
    75    88    90   ar
    76   102   101    1
    77   208   206   ar
    78    23    24    1
    79    23    20    1
    80   119   120    1
    81   199   198    1
    82   101    94   am
    83    21    22    2
    84    21    20    1
    85    37    38    1
    86    92    93    1
    87   204   206   ar
    88   151   149    1
    89    24    25    1
    90    20    19    1
    91    87    89   ar
    92    90    89   ar
    93    90    91    1
    94    94    93    1
    95    94    95    2
    96    93    96    1
    97   149   150    1
    98   149   146    1
    99    38    41    1
   100    38    39    1
   101    96    97    1
   102   132   131    2
   103   146   145    1
   104   146   147    1
   105    39    40    2
   106   129   130    1
   107   135   134    1
   108   145   139   am
   109    99    98   ar
   110   133   134    1
   111   133   130    1
   112   134   136    1
   113   131   130    1
   114   131   137   am
   115   147   148    2
   116   147   152   am
   117    97    98    1
   118    98   100   ar
   119    12    11    2
   120   139   140    2
   121   139   138    1
   122     9     8    2
   123   152   153    1
   124     8     7    1
   125   137   138    1
   126   138   141    1
   127    18    15    1
   128   157   159    1
   129   157   156    1
   130    17    16    2
   131    16    15    1
   132    11    10    1
   133    11    13   am
   134    42    43    1
   135   153   156    1
   136   153   154    1
   137   180   178   ar
   138   180   179   ar
   139   143   142   ar
   140   187   185    1
   141    43    44    1
   142    15    14    1
   143    10     7    1
   144     7     6    1
   145   156   158    1
   146   178   176   ar
   147   141   142    1
   148   179   177   ar
   149   142   144   ar
   150   154   155    2
   151   186   185    1
   152   186   188    1
   153   185   182    1
   154    44    45    2
   155    44    46   am
   156     6     3   am
   157   176   177   ar
   158   176   175    1
   159     4     3    2
   160     3     2    1
   161    46    47    1
   162   182   181    1
   163   182   183    1
   164    51    52    1
   165    51    50    1
   166    52    53    1
   167   175   172    1
   168     5     2    1
   169   197   196    1
   170   181   173   am
   171   184   183    2
   172    53    54    2
   173     2     1    1
   174   183   189   am
   175    47    50    1
   176    47    48    1
   177   173   174    2
   178   173   172    1
   179    54    55    1
   180    54    56    1
   181   172   171    1
   182   170   168    1
   183   169   168    1
   184   196   195    1
   185   189   190    1
   186    48    49    2
   187   168   167    2
   188   195   194    1
   189   190   191    1
   190   190   193    1
   191   194   193    1
   192   191   192    2
   193   167   166    1
   194   166   165    1
   195   165   164    1
   196   164   161    1
   197   163   162    2
   198   162   161    1
   199   161   160    1
