@<TRIPOS>MOLECULE
tmp/1aorB00.pdb
 163 156 0 0 0
SMALL
GASTEIGER

@<TRIPOS>ATOM
      1  N         15.0590   13.3820  -28.8640 N.3    76  ARG76      -0.1245
      2  CA        15.6490   12.1060  -29.2680 C.3    76  ARG76       0.1563
      3  C         15.8670   11.9980  -30.7870 C.2    76  ARG76       0.2260
      4  O         15.1920   12.6730  -31.5660 O.2    76  ARG76      -0.2867
      5  CB        14.7160   10.9810  -28.8340 C.3    76  ARG76       0.0307
      6  CG        14.4870   10.9290  -27.3550 C.3    76  ARG76       0.0489
      7  CD        15.0220    9.6240  -26.8830 C.3    76  ARG76       0.2205
      8  NE        15.7860    9.7470  -25.6580 N.pl3  76  ARG76      -0.0865
      9  CZ        16.6720    8.8510  -25.2440 C.cat  76  ARG76       0.5346
     10  NH1       16.9200    7.7600  -25.9620 N.pl3  76  ARG76       0.1354
     11  NH2       17.2780    9.0280  -24.0840 N.pl3  76  ARG76       0.1354
     12  N         18.6520    4.4490  -30.6300 N.3    93  ASN93      -0.1225
     13  CA        18.0910    5.7150  -30.1940 C.3    93  ASN93       0.1785
     14  C         18.9770    6.4000  -29.1570 C.2    93  ASN93       0.2598
     15  O         19.5740    5.7310  -28.2930 O.2    93  ASN93      -0.2718
     16  CB        16.7050    5.4620  -29.6090 C.3    93  ASN93       0.1169
     17  CG        15.8880    6.7240  -29.4770 C.2    93  ASN93       0.2627
     18  OD1       16.1370    7.5520  -28.6050 O.2    93  ASN93      -0.2716
     19  ND2       14.9080    6.8810  -30.3520 N.am   93  ASN93      -0.0877
     20  N         19.0590    7.7250  -29.2250 N.am   94  SER94      -0.1938
     21  CA        19.8760    8.4600  -28.2760 C.3    94  SER94       0.2055
     22  C         19.2390    9.7920  -27.9010 C.2    94  SER94       0.2643
     23  O         18.5720   10.4300  -28.7210 O.2    94  SER94      -0.2714
     24  CB        21.2700    8.6780  -28.8450 C.3    94  SER94       0.2130
     25  OG        22.1690    9.0710  -27.8250 O.3    94  SER94      -0.2179
     26  N         19.4440   10.1990  -26.6500 N.am   95  GLY95      -0.1954
     27  CA        18.8800   11.4420  -26.1620 C.3    95  GLY95       0.1869
     28  C         19.9200   12.5320  -26.0380 C.2    95  GLY95       0.2309
     29  O         20.8060   12.6490  -26.8850 O.2    95  GLY95      -0.2863
     30  N         27.7700   11.0700  -22.3870 N.3   181  HIS181     -0.1226
     31  CA        27.3200    9.7670  -21.9080 C.3   181  HIS181      0.1752
     32  C         26.0150    9.2260  -22.4720 C.2   181  HIS181      0.2596
     33  O         25.4690    8.2550  -21.9520 O.2   181  HIS181     -0.2718
     34  CB        27.2500    9.7990  -20.3880 C.3   181  HIS181      0.0759
     35  CG        28.5550   10.1430  -19.7440 C.ar  181  HIS181      0.0818
     36  ND1       29.4900    9.1940  -19.3870 N.ar  181  HIS181     -0.2268
     37  CD2       29.0980   11.3410  -19.4230 C.ar  181  HIS181      0.1154
     38  CE1       30.5520    9.7920  -18.8780 C.ar  181  HIS181      0.1986
     39  NE2       30.3380   11.0940  -18.8890 N.ar  181  HIS181     -0.2212
     40  N         25.5130    9.8580  -23.5220 N.am  182  ARG182     -0.1966
     41  CA        24.2780    9.4420  -24.1720 C.3   182  ARG182      0.1729
     42  C         24.6800    8.5210  -25.3100 C.2   182  ARG182      0.2616
     43  O         25.5950    8.8320  -26.0710 O.2   182  ARG182     -0.2715
     44  CB        23.5380   10.6720  -24.6700 C.3   182  ARG182      0.0348
     45  CG        23.0570   11.5130  -23.5200 C.3   182  ARG182      0.0492
     46  CD        21.8850   10.8250  -22.9340 C.3   182  ARG182      0.2205
     47  NE        21.8300   10.8880  -21.4930 N.pl3 182  ARG182     -0.0865
     48  CZ        20.8980   10.2720  -20.7790 C.cat 182  ARG182      0.5346
     49  NH1       19.9600    9.5510  -21.3790 N.pl3 182  ARG182      0.1354
     50  NH2       20.8910   10.3960  -19.4650 N.pl3 182  ARG182      0.1354
     51  N         23.9970    7.3900  -25.4390 N.am  183  ALA183     -0.1977
     52  CA        24.3770    6.4310  -26.4590 C.3   183  ALA183      0.1597
     53  C         23.3570    5.8830  -27.4420 C.2   183  ALA183      0.2287
     54  O         22.2350    5.5310  -27.0790 O.2   183  ALA183     -0.2864
     55  CB        25.1020    5.2500  -25.7920 C.3   183  ALA183      0.0319
     56  N         16.6570    4.7950  -14.0310 N.3   243  THR243     -0.1218
     57  CA        16.2240    3.4960  -14.5400 C.3   243  THR243      0.1862
     58  C         16.6380    2.3690  -13.6010 C.2   243  THR243      0.2287
     59  O         16.0190    1.3090  -13.5810 O.2   243  THR243     -0.2866
     60  CB        16.7990    3.2040  -15.9360 C.3   243  THR243      0.1770
     61  OG1       18.2310    3.2890  -15.9080 O.3   243  THR243     -0.2211
     62  CG2       16.2610    4.1840  -16.9410 C.3   243  THR243      0.0375
     63  N         22.8850    3.2420  -16.3760 N.3   311  GLU311     -0.1245
     64  CA        21.4660    2.9580  -16.4930 C.3   311  GLU311      0.1567
     65  C         21.3260    1.5340  -15.9650 C.2   311  GLU311      0.2260
     66  O         22.3230    0.8070  -15.8350 O.2   311  GLU311     -0.2867
     67  CB        21.0040    3.0020  -17.9500 C.3   311  GLU311      0.0388
     68  CG        21.2910    4.2970  -18.7260 C.3   311  GLU311      0.1160
     69  CD        20.5410    5.5360  -18.2270 C.2   311  GLU311      0.3649
     70  OE1       19.6780    5.4270  -17.3290 O.co2 311  GLU311     -0.2457
     71  OE2       20.8320    6.6350  -18.7450 O.co2 311  GLU311     -0.2457
     72  N         20.3210   -1.2950  -17.2950 N.3   313  GLU313     -0.1245
     73  CA        20.8770   -2.2990  -18.1770 C.3   313  GLU313      0.1567
     74  C         22.3800   -2.4110  -18.0060 C.2   313  GLU313      0.2260
     75  O         22.9330   -3.5130  -18.0090 O.2   313  GLU313     -0.2867
     76  CB        20.5100   -1.9590  -19.6160 C.3   313  GLU313      0.0388
     77  CG        19.9080   -3.1110  -20.4010 C.3   313  GLU313      0.1160
     78  CD        18.5100   -3.5060  -19.9740 C.2   313  GLU313      0.3649
     79  OE1       17.6460   -2.6470  -19.7050 O.co2 313  GLU313     -0.2457
     80  OE2       18.2630   -4.7100  -19.9360 O.co2 313  GLU313     -0.2457
     81  N         15.3670   -5.6590  -25.8770 N.3   448  HIS448     -0.1226
     82  CA        14.1720   -5.4440  -25.0750 C.3   448  HIS448      0.1752
     83  C         13.3890   -4.1330  -25.2800 C.2   448  HIS448      0.2596
     84  O         12.1690   -4.1540  -25.2010 O.2   448  HIS448     -0.2718
     85  CB        14.5630   -5.5270  -23.6080 C.3   448  HIS448      0.0759
     86  CG        15.4160   -4.3780  -23.1730 C.ar  448  HIS448      0.0818
     87  ND1       16.6630   -4.1330  -23.7090 N.ar  448  HIS448     -0.2268
     88  CD2       15.1540   -3.3430  -22.3430 C.ar  448  HIS448      0.1154
     89  CE1       17.1290   -2.9940  -23.2320 C.ar  448  HIS448      0.1986
     90  NE2       16.2290   -2.4930  -22.4050 N.ar  448  HIS448     -0.2212
     91  N         14.0600   -2.9930  -25.4820 N.am  449  ILE449     -0.1966
     92  CA        13.3100   -1.7330  -25.5940 C.3   449  ILE449      0.1727
     93  C         12.5110   -1.4090  -26.8310 C.2   449  ILE449      0.2616
     94  O         11.7090   -0.4800  -26.7930 O.2   449  ILE449     -0.2715
     95  CB        14.0960   -0.4570  -25.1740 C.3   449  ILE449      0.0290
     96  CG1       15.5770   -0.6040  -25.4730 C.3   449  ILE449      0.0022
     97  CG2       13.7500   -0.0550  -23.7300 C.3   449  ILE449      0.0023
     98  CD1       15.8810   -0.5530  -26.9270 C.3   449  ILE449      0.0001
     99  N         12.7270   -2.1210  -27.9310 N.am  450  LYS450     -0.1977
    100  CA        11.9240   -1.8390  -29.1110 C.3   450  LYS450      0.1596
    101  C         10.5800   -2.5820  -28.9880 C.2   450  LYS450      0.2287
    102  O          9.7600   -2.5400  -29.9060 O.2   450  LYS450     -0.2864
    103  CB        12.6450   -2.2060  -30.4090 C.3   450  LYS450      0.0298
    104  CG        14.0780   -1.7040  -30.5280 C.3   450  LYS450      0.0038
    105  CD        14.2480   -0.2260  -30.2170 C.3   450  LYS450      0.0206
    106  CE        15.7370    0.1270  -30.2100 C.3   450  LYS450      0.1093
    107  NZ        16.0120    1.4960  -29.7060 N.3   450  LYS450     -0.1314
    108  N          5.9780    1.5900  -30.4210 N.3   485  THR485     -0.1218
    109  CA         7.3590    1.9840  -30.1990 C.3   485  THR485      0.1862
    110  C          7.9760    2.5110  -31.5020 C.2   485  THR485      0.2287
    111  O          8.7760    3.4500  -31.4780 O.2   485  THR485     -0.2866
    112  CB         8.1800    0.8140  -29.5830 C.3   485  THR485      0.1770
    113  OG1        7.6170    0.4760  -28.3060 O.3   485  THR485     -0.2211
    114  CG2        9.6390    1.2090  -29.3810 C.3   485  THR485      0.0375
    115  N          6.6630    6.1190  -31.6500 N.3   488  ILE488     -0.1231
    116  CA         7.3670    6.9570  -30.6780 C.3   488  ILE488      0.1692
    117  C          8.7970    7.2640  -31.1240 C.2   488  ILE488      0.2592
    118  O          9.2560    8.4030  -31.0120 O.2   488  ILE488     -0.2718
    119  CB         7.3790    6.2910  -29.2830 C.3   488  ILE488      0.0266
    120  CG1        5.9450    6.1530  -28.7670 C.3   488  ILE488      0.0019
    121  CG2        8.2210    7.0990  -28.3060 C.3   488  ILE488      0.0020
    122  CD1        5.8280    5.3830  -27.4600 C.3   488  ILE488      0.0001
    123  N          9.4980    6.2520  -31.6300 N.am  489  ASP489     -0.1974
    124  CA        10.8700    6.4220  -32.1020 C.3   489  ASP489      0.1709
    125  C         10.9150    7.4210  -33.2580 C.2   489  ASP489      0.2293
    126  O         11.7990    8.2780  -33.3220 O.2   489  ASP489     -0.2864
    127  CB        11.4570    5.0820  -32.5720 C.3   489  ASP489      0.1436
    128  CG        12.1350    4.2910  -31.4520 C.2   489  ASP489      0.3671
    129  OD1       12.2300    4.7830  -30.3130 O.co2 489  ASP489     -0.2456
    130  OD2       12.5850    3.1570  -31.7230 O.co2 489  ASP489     -0.2456
    131  N         10.2890   11.2880  -29.5480 N.3   493  LEU493     -0.1231
    132  CA        10.0330   11.3310  -28.1120 C.3   493  LEU493      0.1693
    133  C         10.7430   10.1740  -27.4090 C.2   493  LEU493      0.2592
    134  O         11.2780    9.2600  -28.0630 O.2   493  LEU493     -0.2718
    135  CB         8.5210   11.2710  -27.8400 C.3   493  LEU493      0.0284
    136  CG         7.6590   12.5440  -27.7470 C.3   493  LEU493      0.0019
    137  CD1        8.3380   13.7550  -28.3440 C.3   493  LEU493      0.0001
    138  CD2        6.3110   12.2930  -28.4090 C.3   493  LEU493      0.0001
    139  N         10.7880   10.2530  -26.0800 N.am  494  CYS494     -0.1956
    140  CA        11.4160    9.2340  -25.2490 C.3   494  CYS494      0.1843
    141  C         10.3780    8.1700  -24.9430 C.2   494  CYS494      0.2625
    142  O          9.2310    8.4810  -24.6410 O.2   494  CYS494     -0.2714
    143  CB        11.9300    9.8520  -23.9450 C.3   494  CYS494      0.0997
    144  SG        12.6970    8.7050  -22.7800 S.3   494  CYS494     -0.0797
    145  N         10.7950    6.9130  -25.0010 N.am  495  LEU495     -0.1963
    146  CA         9.9040    5.7990  -24.7350 C.3   495  LEU495      0.1728
    147  C          9.2870    5.8550  -23.3400 C.2   495  LEU495      0.2616
    148  O          8.1680    5.3870  -23.1340 O.2   495  LEU495     -0.2715
    149  CB        10.6720    4.4980  -24.8800 C.3   495  LEU495      0.0311
    150  CG         9.7960    3.2560  -24.8260 C.3   495  LEU495      0.0022
    151  CD1        9.0250    3.1600  -26.1270 C.3   495  LEU495      0.0001
    152  CD2       10.6530    2.0340  -24.6130 C.3   495  LEU495      0.0001
    153  N         10.0050    6.4390  -22.3880 N.am  496  PHE496     -0.1974
    154  CA         9.5100    6.5160  -21.0160 C.3   496  PHE496      0.1639
    155  C          8.2360    7.3630  -20.8330 C.2   496  PHE496      0.2290
    156  O          7.6280    7.3490  -19.7560 O.2   496  PHE496     -0.2864
    157  CB        10.6220    6.9810  -20.0560 C.3   496  PHE496      0.0560
    158  CG        11.8300    6.0560  -20.0020 C.ar  496  PHE496     -0.0200
    159  CD1       11.7750    4.7570  -20.5130 C.ar  496  PHE496     -0.0042
    160  CD2       13.0270    6.4980  -19.4380 C.ar  496  PHE496     -0.0042
    161  CE1       12.8890    3.9180  -20.4620 C.ar  496  PHE496     -0.0003
    162  CE2       14.1490    5.6680  -19.3820 C.ar  496  PHE496     -0.0003
    163  CZ        14.0800    4.3750  -19.8950 C.ar  496  PHE496     -0.0000
@<TRIPOS>BOND
     1   126   125    2
     2   125   124    1
     3   127   124    1
     4   127   128    1
     5   124   123    1
     6   130   128   ar
     7   115   116    1
     8   123   117   am
     9     4     3    2
    10   110   111    2
    11   110   109    1
    12   128   129   ar
    13   117   118    2
    14   117   116    1
    15     3     2    1
    16   116   119    1
    17    12    13    1
    18   104   103    1
    19   104   105    1
    20   108   109    1
    21   103   100    1
    22    19    17   am
    23   105   106    1
    24   106   107    1
    25   109   112    1
    26    13    16    1
    27    13    14    1
    28   102   101    2
    29    16    17    1
    30   112   114    1
    31   112   113    1
    32   131   132    1
    33    17    18    2
    34   119   120    1
    35   119   121    1
    36     2     1    1
    37     2     5    1
    38    20    14   am
    39    20    21    1
    40    14    15    2
    41   100   101    1
    42   100    99    1
    43    24    21    1
    44    24    25    1
    45     5     6    1
    46   120   122    1
    47    23    22    2
    48   138   136    1
    49   137   136    1
    50    21    22    1
    51   132   135    1
    52   132   133    1
    53   134   133    2
    54    99    93   am
    55    22    26   am
    56   135   136    1
    57    53    54    2
    58    53    52    1
    59   133   139   am
    60     6     7    1
    61    98    96    1
    62    29    28    2
    63     7     8    1
    64    93    94    2
    65    93    92    1
    66    26    27    1
    67    52    55    1
    68    52    51    1
    69    27    28    1
    70   151   150    1
    71   139   140    1
    72    43    42    2
    73    10     9    1
    74    81    82    1
    75     8     9    2
    76    92    91    1
    77    92    95    1
    78    91    83   am
    79    96    95    1
    80    51    42   am
    81    42    41    1
    82    83    84    2
    83    83    82    1
    84   140   141    1
    85   140   143    1
    86     9    11    1
    87    95    97    1
    88    82    85    1
    89   145   141   am
    90   145   146    1
    91   141   142    2
    92   149   150    1
    93   149   146    1
    94   150   152    1
    95   146   147    1
    96    44    41    1
    97    44    45    1
    98    41    40    1
    99   143   144    1
   100    87    89   ar
   101    87    86   ar
   102    85    86    1
   103    40    32   am
   104    45    46    1
   105   147   148    2
   106   147   153   am
   107    89    90   ar
   108    86    88   ar
   109    46    47    1
   110    32    33    2
   111    32    31    1
   112    90    88   ar
   113   153   154    1
   114    30    31    1
   115    31    34    1
   116    47    48    2
   117    49    48    1
   118   154   155    1
   119   154   157    1
   120   155   156    2
   121    48    50    1
   122   159   161   ar
   123   159   158   ar
   124   161   163   ar
   125    77    78    1
   126    77    76    1
   127    34    35    1
   128   157   158    1
   129   158   160   ar
   130    78    80   ar
   131    78    79   ar
   132   163   162   ar
   133    35    37   ar
   134    35    36   ar
   135    76    73    1
   136   160   162   ar
   137    37    39   ar
   138    36    38   ar
   139    39    38   ar
   140    71    69   ar
   141    68    69    1
   142    68    67    1
   143    69    70   ar
   144    73    74    1
   145    73    72    1
   146    75    74    2
   147    67    64    1
   148    62    60    1
   149    64    63    1
   150    64    65    1
   151    65    66    2
   152    60    61    1
   153    60    57    1
   154    57    56    1
   155    57    58    1
   156    58    59    2
