@<TRIPOS>MOLECULE
tmp/1ap8A00.pdb
 105 102 0 0 0
SMALL
GASTEIGER

@<TRIPOS>ATOM
      1  N         19.5520   -8.7370   -4.9250 N.3    51  ALA51      -0.1245
      2  CA        18.5310   -9.4830   -4.1410 C.3    51  ALA51       0.1562
      3  C         18.9550   -9.5430   -2.6780 C.2    51  ALA51       0.2260
      4  O         18.5730  -10.4260   -1.9340 O.2    51  ALA51      -0.2867
      5  CB        18.5310  -10.8760   -4.7380 C.3    51  ALA51       0.0290
      6  N         17.9110   -8.1270   -0.3640 N.3    53  ASP53      -0.1239
      7  CA        16.7680   -7.8620    0.5600 C.3    53  ASP53       0.1674
      8  C         16.9070   -8.7000    1.8230 C.2    53  ASP53       0.2266
      9  O         16.4870   -8.3120    2.8950 O.2    53  ASP53      -0.2867
     10  CB        15.5150   -8.2580   -0.2230 C.3    53  ASP53       0.1410
     11  CG        14.3060   -8.2640    0.7150 C.2    53  ASP53       0.3668
     12  OD1       14.4530   -7.8250    1.8430 O.co2  53  ASP53      -0.2456
     13  OD2       13.2520   -8.7080    0.2870 O.co2  53  ASP53      -0.2456
     14  N         13.7300   -5.6900   -0.3830 N.3    58  TRP58      -0.1241
     15  CA        13.2920   -5.9030   -1.7850 C.3    58  TRP58       0.1605
     16  C         13.0270   -4.5330   -2.4180 C.2    58  TRP58       0.2264
     17  O         13.1430   -4.3520   -3.6130 O.2    58  TRP58      -0.2867
     18  CB        12.0100   -6.7420   -1.6860 C.3    58  TRP58       0.0550
     19  CG        11.1200   -6.4390   -2.8480 C.ar   58  TRP58       0.0003
     20  CD1        9.9990   -5.6910   -2.7830 C.ar   58  TRP58       0.0946
     21  CD2       11.2640   -6.8450   -4.2390 C.ar   58  TRP58       0.0152
     22  NE1        9.4480   -5.6010   -4.0470 N.ar   58  TRP58      -0.2442
     23  CE2       10.1890   -6.3010   -4.9790 C.ar   58  TRP58       0.0810
     24  CE3       12.2140   -7.6250   -4.9260 C.ar   58  TRP58       0.0012
     25  CZ2       10.0600   -6.5180   -6.3500 C.ar   58  TRP58       0.0191
     26  CZ3       12.0850   -7.8480   -6.3070 C.ar   58  TRP58       0.0001
     27  CH2       11.0090   -7.2960   -7.0170 C.ar   58  TRP58       0.0015
     28  N         18.1010  -14.4670  -11.9680 N.3    90  LYS90      -0.1245
     29  CA        17.4830  -13.9040  -10.7370 C.3    90  LYS90       0.1561
     30  C         17.0320  -12.4670  -10.9810 C.2    90  LYS90       0.2260
     31  O         16.9340  -11.6650  -10.0720 O.2    90  LYS90      -0.2867
     32  CB        18.5960  -13.9310   -9.7130 C.3    90  LYS90       0.0271
     33  CG        18.0250  -13.5380   -8.3580 C.3    90  LYS90       0.0035
     34  CD        19.0310  -13.8750   -7.2560 C.3    90  LYS90       0.0206
     35  CE        18.4160  -14.8950   -6.2940 C.3    90  LYS90       0.1093
     36  NZ        19.4260  -15.9850   -6.1940 N.3    90  LYS90      -0.1314
     37  N         14.3930   -9.3360  -12.2810 N.3    92  ASP92      -0.1239
     38  CA        12.9440   -9.0770  -12.0280 C.3    92  ASP92       0.1674
     39  C         12.5490   -7.6840  -12.5390 C.2    92  ASP92       0.2266
     40  O         12.6820   -6.7020  -11.8390 O.2    92  ASP92      -0.2867
     41  CB        12.7900   -9.1530  -10.5090 C.3    92  ASP92       0.1410
     42  CG        11.8700  -10.3210  -10.1470 C.2    92  ASP92       0.3668
     43  OD1       10.6710  -10.1080  -10.0840 O.co2  92  ASP92      -0.2456
     44  OD2       12.3800  -11.4090   -9.9390 O.co2  92  ASP92      -0.2456
     45  N          9.7310   -4.7970  -13.8870 N.3    94  HIS94      -0.1241
     46  CA         8.2750   -4.5330  -13.6860 C.3    94  HIS94       0.1621
     47  C          7.8730   -3.2000  -14.3270 C.2    94  HIS94       0.2264
     48  O          8.5060   -2.1870  -14.1190 O.2    94  HIS94      -0.2867
     49  CB         8.0890   -4.4650  -12.1690 C.3    94  HIS94       0.0745
     50  CG         8.6800   -5.6900  -11.5270 C.ar   94  HIS94       0.0817
     51  ND1        7.8920   -6.7220  -11.0440 N.ar   94  HIS94      -0.2268
     52  CD2        9.9780   -6.0620  -11.2780 C.ar   94  HIS94       0.1154
     53  CE1        8.7150   -7.6570  -10.5330 C.ar   94  HIS94       0.1986
     54  NE2        9.9980   -7.3040  -10.6500 N.ar   94  HIS94      -0.2212
     55  N          3.0240   -2.5730   -6.9150 N.3   103  GLU103     -0.1231
     56  CA         4.1380   -3.5830   -6.8960 C.3   103  GLU103      0.1699
     57  C          3.5550   -4.9910   -6.8390 C.2   103  GLU103      0.2592
     58  O          2.3920   -5.1770   -6.5650 O.2   103  GLU103     -0.2718
     59  CB         4.9410   -3.3110   -5.6180 C.3   103  GLU103      0.0402
     60  CG         6.2670   -2.6370   -5.9810 C.3   103  GLU103      0.1161
     61  CD         6.8590   -1.9720   -4.7380 C.2   103  GLU103      0.3649
     62  OE1        7.4380   -2.6790   -3.9290 O.co2 103  GLU103     -0.2457
     63  OE2        6.7260   -0.7650   -4.6150 O.co2 103  GLU103     -0.2457
     64  N          4.3570   -5.9910   -7.0580 N.am  104  TRP104     -0.1962
     65  CA         3.8390   -7.3870   -6.9830 C.3   104  TRP104      0.1771
     66  C          3.0480   -7.5700   -5.6800 C.2   104  TRP104      0.2619
     67  O          2.2890   -8.5050   -5.5260 O.2   104  TRP104     -0.2715
     68  CB         5.1170   -8.2580   -7.0600 C.3   104  TRP104      0.0590
     69  CG         5.3340   -9.1260   -5.8400 C.ar  104  TRP104      0.0006
     70  CD1        5.1710   -8.7460   -4.5510 C.ar  104  TRP104      0.0946
     71  CD2        5.8210  -10.5030   -5.7830 C.ar  104  TRP104      0.0152
     72  NE1        5.4650   -9.8010   -3.7270 N.ar  104  TRP104     -0.2442
     73  CE2        5.8750  -10.9030   -4.4280 C.ar  104  TRP104      0.0810
     74  CE3        6.2000  -11.4400   -6.7590 C.ar  104  TRP104      0.0012
     75  CZ2        6.2850  -12.1750   -4.0530 C.ar  104  TRP104      0.0191
     76  CZ3        6.6250  -12.7250   -6.3770 C.ar  104  TRP104      0.0001
     77  CH2        6.6650  -13.0900   -5.0290 C.ar  104  TRP104      0.0015
     78  N          3.2490   -6.6900   -4.7320 N.am  105  GLU105     -0.1977
     79  CA         2.5480   -6.8060   -3.4300 C.3   105  GLU105      0.1602
     80  C          1.1440   -6.2060   -3.5260 C.2   105  GLU105      0.2287
     81  O          0.2600   -6.5530   -2.7690 O.2   105  GLU105     -0.2864
     82  CB         3.4310   -6.0140   -2.4590 C.3   105  GLU105      0.0415
     83  CG         3.1690   -6.4770   -1.0240 C.3   105  GLU105      0.1163
     84  CD         4.2600   -7.4660   -0.5990 C.2   105  GLU105      0.3649
     85  OE1        4.2130   -8.5970   -1.0530 O.co2 105  GLU105     -0.2457
     86  OE2        5.1220   -7.0770    0.1730 O.co2 105  GLU105     -0.2457
     87  N         14.0600  -13.3930  -14.0520 N.3   156  ILE156     -0.1231
     88  CA        14.8570  -14.6040  -14.3740 C.3   156  ILE156      0.1692
     89  C         15.3590  -15.2480  -13.0800 C.2   156  ILE156      0.2591
     90  O         15.3250  -14.6470  -12.0240 O.2   156  ILE156     -0.2718
     91  CB        16.0340  -14.1140  -15.2140 C.3   156  ILE156      0.0266
     92  CG1       15.5300  -13.5150  -16.5290 C.3   156  ILE156      0.0019
     93  CG2       16.9460  -15.2970  -15.5190 C.3   156  ILE156      0.0020
     94  CD1       16.7120  -13.2880  -17.4700 C.3   156  ILE156      0.0001
     95  N         15.8260  -16.4610  -13.1540 N.am  157  ARG157     -0.1980
     96  CA        16.3300  -17.1470  -11.9320 C.3   157  ARG157      0.1597
     97  C         17.3810  -18.1950  -12.3110 C.2   157  ARG157      0.2287
     98  O         17.6000  -18.4750  -13.4730 O.2   157  ARG157     -0.2864
     99  CB        15.1000  -17.8160  -11.3200 C.3   157  ARG157      0.0334
    100  CG        15.1960  -17.7670   -9.7940 C.3   157  ARG157      0.0492
    101  CD        13.7970  -17.9060   -9.1910 C.3   157  ARG157      0.2205
    102  NE        13.1210  -16.6130   -9.4880 N.pl3 157  ARG157     -0.0865
    103  CZ        11.9300  -16.3690   -9.0090 C.cat 157  ARG157      0.5346
    104  NH1       11.2660  -17.3100   -8.3940 N.pl3 157  ARG157      0.1354
    105  NH2       11.4050  -15.1830   -9.1460 N.pl3 157  ARG157      0.1354
@<TRIPOS>BOND
     1    94    92    1
     2    92    91    1
     3    93    91    1
     4    91    88    1
     5    88    87    1
     6    88    89    1
     7    47    48    2
     8    47    46    1
     9    45    46    1
    10    46    49    1
    11    98    97    2
    12    95    89   am
    13    95    96    1
    14    89    90    2
    15    39    38    1
    16    39    40    2
    17    97    96    1
    18    37    38    1
    19    49    50    1
    20    38    41    1
    21    28    29    1
    22    96    99    1
    23    50    52   ar
    24    50    51   ar
    25    99   100    1
    26    52    54   ar
    27    51    53   ar
    28    30    29    1
    29    30    31    2
    30    29    32    1
    31    54    53   ar
    32    41    42    1
    33    42    43   ar
    34    42    44   ar
    35   100   101    1
    36    32    33    1
    37   102   101    1
    38   102   103    2
    39   105   103    1
    40   103   104    1
    41    33    34    1
    42    34    35    1
    43    68    65    1
    44    68    69    1
    45    64    65    1
    46    64    57   am
    47    27    25   ar
    48    27    26   ar
    49    65    66    1
    50    55    56    1
    51    56    57    1
    52    56    59    1
    53    57    58    2
    54    74    76   ar
    55    74    71   ar
    56    76    77   ar
    57    25    23   ar
    58    26    24   ar
    59    35    36    1
    60    60    59    1
    61    60    61    1
    62    69    71   ar
    63    69    70   ar
    64    71    73   ar
    65    66    67    2
    66    66    78   am
    67    77    75   ar
    68    23    21   ar
    69    23    22   ar
    70    24    21   ar
    71     1     2    1
    72    61    63   ar
    73    61    62   ar
    74     5     2    1
    75    78    79    1
    76    70    72   ar
    77    73    75   ar
    78    73    72   ar
    79    21    19   ar
    80     2     3    1
    81    22    20   ar
    82    17    16    2
    83    80    79    1
    84    80    81    2
    85    79    82    1
    86    19    20   ar
    87    19    18    1
    88     3     4    2
    89    82    83    1
    90    16    15    1
    91    15    18    1
    92    15    14    1
    93    85    84   ar
    94    83    84    1
    95    84    86   ar
    96     6     7    1
    97    10     7    1
    98    10    11    1
    99    13    11   ar
   100     7     8    1
   101    11    12   ar
   102     8     9    2
