@<TRIPOS>MOLECULE
tmp/1apbA00.pdb
 134 126 0 0 0
SMALL
GASTEIGER

@<TRIPOS>ATOM
      1  N         11.3910   49.2400   58.9250 N.3     9  LYS9       -0.1231
      2  CA        10.6150   50.0800   59.8360 C.3     9  LYS9        0.1693
      3  C          9.1950   50.3170   59.3300 C.2     9  LYS9        0.2591
      4  O          8.2690   50.4610   60.1550 O.2     9  LYS9       -0.2718
      5  CB        11.2970   51.4160   60.1080 C.3     9  LYS9        0.0285
      6  CG        11.5190   52.2630   58.8470 C.3     9  LYS9        0.0035
      7  CD        12.2730   53.5490   59.1660 C.3     9  LYS9        0.0206
      8  CE        12.1790   54.5400   58.0220 C.3     9  LYS9        0.1093
      9  NZ        12.8610   55.8110   58.3640 N.3     9  LYS9       -0.1314
     10  N          9.0510   50.4610   58.0220 N.am   10  GLN10      -0.1979
     11  CA         7.7590   50.8270   57.4230 C.3    10  GLN10       0.1601
     12  C          7.4210   49.9290   56.2320 C.2    10  GLN10       0.2287
     13  O          7.6370   50.3100   55.0720 O.2    10  GLN10      -0.2864
     14  CB         7.6980   52.3140   57.0650 C.3    10  GLN10       0.0394
     15  CG         7.7370   53.2040   58.2940 C.3    10  GLN10       0.0908
     16  CD         7.8250   54.6840   58.0220 C.2    10  GLN10       0.2608
     17  OE1        8.7790   55.3660   58.4190 O.2    10  GLN10      -0.2717
     18  NE2        6.6830   55.2650   57.6410 N.am   10  GLN10      -0.0878
     19  N          5.2020   51.2150   53.0640 N.3    13  GLU13      -0.1196
     20  CA         5.7620   52.0340   51.9660 C.3    13  GLU13       0.1783
     21  C          6.2390   51.1140   50.8450 C.2    13  GLU13       0.2306
     22  O          7.1210   50.2740   51.0790 O.2    13  GLU13      -0.2863
     23  CB         6.9710   52.8450   52.4250 C.2    13  GLU13       0.0071
     24  CG         6.7490   54.0160   53.3670 C.2    13  GLU13       0.0834
     25  CD         7.8360   55.0500   53.4450 C.2    13  GLU13       0.3877
     26  OE1        7.6870   56.1420   53.9590 O.co2  13  GLU13      -0.2406
     27  OE2        8.8850   54.6980   52.8690 O.co2  13  GLU13      -0.2406
     28  N          8.5570   51.7680   48.9460 N.3    15  TRP15      -0.1227
     29  CA        10.0220   51.8180   49.0550 C.3    15  TRP15       0.1737
     30  C         10.5650   50.5250   49.6700 C.2    15  TRP15       0.2595
     31  O         11.5130   49.9150   49.1400 O.2    15  TRP15      -0.2718
     32  CB        10.4990   53.0460   49.8250 C.3    15  TRP15       0.0564
     33  CG        11.9740   53.1180   50.0120 C.ar   15  TRP15       0.0003
     34  CD1       12.7110   52.6660   51.0710 C.ar   15  TRP15       0.0946
     35  CD2       12.9220   53.6280   49.0630 C.ar   15  TRP15       0.0152
     36  NE1       14.0540   52.8670   50.8450 N.ar   15  TRP15      -0.2442
     37  CE2       14.2090   53.4050   49.5920 C.ar   15  TRP15       0.0810
     38  CE3       12.7950   54.2460   47.8170 C.ar   15  TRP15       0.0012
     39  CZ2       15.3680   53.8220   48.9460 C.ar   15  TRP15       0.0191
     40  CZ3       13.9480   54.5900   47.1400 C.ar   15  TRP15       0.0001
     41  CH2       15.2130   54.3960   47.6930 C.ar   15  TRP15       0.0015
     42  N         10.0160   50.1950   50.8220 N.am   16  PHE16      -0.1976
     43  CA        10.4650   49.0530   51.6390 C.3    16  PHE16       0.1639
     44  C          9.9940   47.7320   51.0400 C.2    16  PHE16       0.2290
     45  O         10.7150   46.7190   51.0860 O.2    16  PHE16      -0.2864
     46  CB        10.1050   49.2250   53.1100 C.3    16  PHE16       0.0560
     47  CG        10.9590   50.2240   53.8340 C.ar   16  PHE16      -0.0200
     48  CD1       10.4150   51.4450   54.2230 C.ar   16  PHE16      -0.0042
     49  CD2       12.3450   50.0510   53.8730 C.ar   16  PHE16      -0.0042
     50  CE1       11.2140   52.4290   54.7920 C.ar   16  PHE16      -0.0003
     51  CE2       13.1720   51.0350   54.4260 C.ar   16  PHE16      -0.0003
     52  CZ        12.5890   52.2200   54.9080 C.ar   16  PHE16      -0.0000
     53  N         19.4720   52.3350   54.6830 N.3    88  ASP88      -0.1225
     54  CA        18.7290   53.5920   54.6830 C.3    88  ASP88       0.1805
     55  C         19.1170   54.4830   55.8660 C.2    88  ASP88       0.2597
     56  O         19.5110   55.6390   55.6480 O.2    88  ASP88      -0.2718
     57  CB        17.2310   53.3910   54.5190 C.3    88  ASP88       0.1424
     58  CG        16.8820   52.6370   53.2430 C.2    88  ASP88       0.3668
     59  OD1       16.1440   51.6460   53.3050 O.co2  88  ASP88      -0.2456
     60  OD2       17.4700   53.0100   52.2070 O.co2  88  ASP88      -0.2456
     61  N         18.8060   54.0090   57.0570 N.am   89  ASP89      -0.1974
     62  CA        18.9280   54.7990   58.2940 C.3    89  ASP89       0.1709
     63  C         20.1490   54.3170   59.0880 C.2    89  ASP89       0.2293
     64  O         20.1320   53.1970   59.6180 O.2    89  ASP89      -0.2864
     65  CB        17.6310   54.7200   59.0960 C.3    89  ASP89       0.1436
     66  CG        16.4220   55.2870   58.3800 C.2    89  ASP89       0.3671
     67  OD1       15.3290   55.3660   58.9640 O.co2  89  ASP89      -0.2456
     68  OD2       16.5710   55.6030   57.1810 O.co2  89  ASP89      -0.2456
     69  N         21.1860   56.1270   50.3780 N.3   107  MET107     -0.1245
     70  CA        21.1190   57.0970   49.2730 C.3   107  MET107      0.1570
     71  C         22.0010   58.2960   49.6070 C.2   107  MET107      0.2261
     72  O         22.4060   58.4690   50.7670 O.2   107  MET107     -0.2867
     73  CB        19.7050   57.4700   48.8910 C.3   107  MET107      0.0387
     74  CG        18.9230   58.1530   49.9730 C.3   107  MET107      0.0595
     75  SD        17.5970   59.1580   49.2180 S.3   107  MET107     -0.1393
     76  CE        16.6550   57.9010   48.3390 C.3   107  MET107      0.0692
     77  N         16.3830   62.4330   62.5060 N.3   144  LEU144     -0.1245
     78  CA        16.8930   61.4200   61.5710 C.3   144  LEU144      0.1561
     79  C         17.8410   62.0670   60.5600 C.2   144  LEU144      0.2260
     80  O         17.4200   62.7850   59.6410 O.2   144  LEU144     -0.2867
     81  CB        15.6900   60.7020   60.9570 C.3   144  LEU144      0.0270
     82  CG        15.9950   59.6610   59.8820 C.3   144  LEU144      0.0019
     83  CD1       16.6820   58.4470   60.4970 C.3   144  LEU144      0.0001
     84  CD2       14.6910   59.2590   59.2050 C.3   144  LEU144      0.0001
     85  N         19.4890   61.1400   57.8660 N.3   146  THR146     -0.1218
     86  CA        19.2220   60.9680   56.4340 C.3   146  THR146      0.1862
     87  C         18.1240   61.9090   55.9590 C.2   146  THR146      0.2287
     88  O         18.1910   62.4260   54.8300 O.2   146  THR146     -0.2866
     89  CB        18.9280   59.4600   56.0680 C.3   146  THR146      0.1770
     90  OG1       18.9340   59.3810   54.6050 O.3   146  THR146     -0.2211
     91  CG2       17.6420   58.9070   56.6750 C.3   146  THR146      0.0375
     92  N         18.5740   65.5790   53.5850 N.3   150  ARG150     -0.1245
     93  CA        17.7310   65.7870   52.4020 C.3   150  ARG150      0.1563
     94  C         17.1090   67.1800   52.4330 C.2   150  ARG150      0.2260
     95  O         17.2310   67.9350   51.4600 O.2   150  ARG150     -0.2867
     96  CB        16.6550   64.7170   52.2310 C.3   150  ARG150      0.0307
     97  CG        17.0650   63.5100   51.3900 C.3   150  ARG150      0.0489
     98  CD        16.0560   62.4190   51.4680 C.3   150  ARG150      0.2205
     99  NE        16.3220   61.5140   52.5890 N.pl3 150  ARG150     -0.0865
    100  CZ        15.5900   60.4220   52.8140 C.cat 150  ARG150      0.5346
    101  NH1       14.5420   60.1210   52.0520 N.pl3 150  ARG150      0.1354
    102  NH2       15.9610   59.5750   53.7720 N.pl3 150  ARG150      0.1354
    103  N          6.7440   60.3220   60.2170 N.3   176  ASN176     -0.1240
    104  CA         7.2380   60.3860   58.8310 C.3   176  ASN176      0.1653
    105  C          6.2340   59.7180   57.8900 C.2   176  ASN176      0.2266
    106  O          6.6050   58.8130   57.1270 O.2   176  ASN176     -0.2867
    107  CB         8.6410   59.7900   58.7300 C.3   176  ASN176      0.1155
    108  CG         9.6670   60.5660   59.5320 C.2   176  ASN176      0.2627
    109  OD1        9.5890   61.7940   59.6250 O.2   176  ASN176     -0.2716
    110  ND2       10.6210   59.8400   60.1240 N.am  176  ASN176     -0.0877
    111  N         11.3420   65.0980   53.1880 N.3   203  MET203     -0.1230
    112  CA        12.4230   64.1280   52.9550 C.3   203  MET203      0.1702
    113  C         11.9960   62.9860   52.0360 C.2   203  MET203      0.2592
    114  O         12.8720   62.2890   51.4910 O.2   203  MET203     -0.2718
    115  CB        13.0280   63.6250   54.2620 C.3   203  MET203      0.0401
    116  CG        12.0400   62.8140   55.0560 C.3   203  MET203      0.0596
    117  SD        12.5840   61.0610   55.0170 S.3   203  MET203     -0.1393
    118  CE        11.7240   60.4580   56.4880 C.3   203  MET203      0.0692
    119  N         10.7040   62.7350   51.9580 N.am  204  ASN204     -0.1974
    120  CA        10.1770   61.6000   51.1720 C.3   204  ASN204      0.1688
    121  C          8.7790   61.9020   50.6430 C.2   204  ASN204      0.2292
    122  O          8.1690   62.9220   50.9850 O.2   204  ASN204     -0.2864
    123  CB        10.2770   60.3070   51.9660 C.3   204  ASN204      0.1181
    124  CG         9.3510   60.2500   53.1650 C.2   204  ASN204      0.2629
    125  OD1        8.5020   61.1260   53.3750 O.2   204  ASN204     -0.2716
    126  ND2        9.4780   59.1720   53.9430 N.am  204  ASN204     -0.0877
    127  N         11.6360   59.2370   46.5330 N.3   231  ASN231     -0.1240
    128  CA        11.4190   57.7860   46.6340 C.3   231  ASN231      0.1653
    129  C         10.9870   57.2480   45.2640 C.2   231  ASN231      0.2266
    130  O         11.6520   56.3640   44.7040 O.2   231  ASN231     -0.2867
    131  CB        10.4820   57.3990   47.7700 C.3   231  ASN231      0.1155
    132  CG        11.1810   57.2620   49.1090 C.2   231  ASN231      0.2627
    133  OD1       12.3560   57.6360   49.2420 O.2   231  ASN231     -0.2716
    134  ND2       10.4040   56.9320   50.1450 N.am  231  ASN231     -0.0877
@<TRIPOS>BOND
     1   130   129    2
     2   129   128    1
     3   127   128    1
     4   128   131    1
     5    40    41   ar
     6    40    38   ar
     7    41    39   ar
     8   131   132    1
     9    38    35   ar
    10    76    75    1
    11    73    70    1
    12    73    74    1
    13    28    29    1
    14    39    37   ar
    15    29    30    1
    16    29    32    1
    17    35    37   ar
    18    35    33   ar
    19   132   133    2
    20   132   134   am
    21    31    30    2
    22    75    74    1
    23    70    71    1
    24    70    69    1
    25    37    36   ar
    26    71    72    2
    27    30    42   am
    28    32    33    1
    29    33    34   ar
    30   121   122    2
    31   121   120    1
    32    42    43    1
    33    21    22    2
    34    21    20    1
    35    36    34   ar
    36    44    45    2
    37    44    43    1
    38   120   119    1
    39   120   123    1
    40    97    98    1
    41    97    96    1
    42    95    94    2
    43    98    99    1
    44   114   113    2
    45    43    46    1
    46   119   113   am
    47   123   124    1
    48    20    23    1
    49    20    19    1
    50   113   112    1
    51   101   100    1
    52    60    58   ar
    53    96    93    1
    54    93    94    1
    55    93    92    1
    56    23    24    2
    57    99   100    2
    58   100   102    1
    59    27    25   ar
    60   112   111    1
    61   112   115    1
    62    46    47    1
    63   124   125    2
    64   124   126   am
    65    58    59   ar
    66    58    57    1
    67    24    25    1
    68    25    26   ar
    69    47    49   ar
    70    47    48   ar
    71    49    51   ar
    72    48    50   ar
    73   115   116    1
    74    51    52   ar
    75    57    54    1
    76    90    89    1
    77    53    54    1
    78    54    55    1
    79    50    52   ar
    80    88    87    2
    81   117   116    1
    82   117   118    1
    83    13    12    2
    84    56    55    2
    85    55    61   am
    86    87    86    1
    87    89    86    1
    88    89    91    1
    89    12    11    1
    90    86    85    1
    91    61    62    1
    92    14    11    1
    93    14    15    1
    94   106   105    2
    95    68    66   ar
    96    11    10    1
    97    18    16   am
    98   105   104    1
    99     8     9    1
   100     8     7    1
   101    10     3   am
   102    16    15    1
   103    16    17    2
   104    62    63    1
   105    62    65    1
   106    66    67   ar
   107    66    65    1
   108   107   104    1
   109   107   108    1
   110   104   103    1
   111     6     7    1
   112     6     5    1
   113     1     2    1
   114    63    64    2
   115    84    82    1
   116     3     2    1
   117     3     4    2
   118   108   109    2
   119   108   110   am
   120    80    79    2
   121     2     5    1
   122    82    83    1
   123    82    81    1
   124    79    78    1
   125    81    78    1
   126    78    77    1
