@<TRIPOS>MOLECULE
tmp/1apmA00.pdb
 110 106 0 0 0
SMALL
GASTEIGER

@<TRIPOS>ATOM
      1  N         -7.4530  -14.5760  -14.9690 N.3     4  SER4       -0.1202
      2  CA        -8.1110  -13.3870  -14.3830 C.3     4  SER4        0.2020
      3  C         -7.1050  -12.2770  -14.0720 C.2     4  SER4        0.2618
      4  O         -7.3970  -11.0880  -14.1580 O.2     4  SER4       -0.2717
      5  CB        -8.8660  -13.7530  -13.1140 C.3     4  SER4        0.2103
      6  OG        -8.4390  -15.0180  -12.6190 O.3     4  SER4       -0.2182
      7  N         -5.9120  -12.7290  -13.6910 N.am    5  VAL5       -0.1979
      8  CA        -4.8010  -11.8820  -13.3780 C.3     5  VAL5        0.1595
      9  C         -4.3830  -11.1920  -14.6720 C.2     5  VAL5        0.2287
     10  O         -4.3910   -9.9550  -14.7950 O.2     5  VAL5       -0.2864
     11  CB        -3.6810  -12.7440  -12.8030 C.3     5  VAL5        0.0276
     12  CG1       -2.4200  -11.9150  -12.6440 C.3     5  VAL5        0.0022
     13  CG2       -4.1040  -13.3470  -11.4590 C.3     5  VAL5        0.0022
     14  N         -6.7420   -8.6990  -15.7020 N.3     8  PHE8       -0.1227
     15  CA        -6.6710   -7.5670  -14.8100 C.3     8  PHE8        0.1736
     16  C         -5.5050   -6.7230  -15.2120 C.2     8  PHE8        0.2595
     17  O         -5.6030   -5.5410  -15.5150 O.2     8  PHE8       -0.2718
     18  CB        -6.4530   -8.0560  -13.3810 C.3     8  PHE8        0.0547
     19  CG        -6.2020   -6.9120  -12.4370 C.ar    8  PHE8       -0.0202
     20  CD1       -7.2550   -6.2290  -11.8340 C.ar    8  PHE8       -0.0042
     21  CD2       -4.9000   -6.5150  -12.1350 C.ar    8  PHE8       -0.0042
     22  CE1       -7.0200   -5.1770  -10.9490 C.ar    8  PHE8       -0.0003
     23  CE2       -4.6430   -5.4550  -11.2580 C.ar    8  PHE8       -0.0003
     24  CZ        -5.7120   -4.7880  -10.6650 C.ar    8  PHE8       -0.0000
     25  N         -4.3710   -7.3630  -15.2510 N.am    9  LEU9       -0.1980
     26  CA        -3.1710   -6.6650  -15.6350 C.3     9  LEU9        0.1596
     27  C         -3.3160   -5.9380  -16.9630 C.2     9  LEU9        0.2287
     28  O         -2.8800   -4.8020  -17.1200 O.2     9  LEU9       -0.2864
     29  CB        -2.0240   -7.6560  -15.7610 C.3     9  LEU9        0.0297
     30  CG        -0.9540   -7.5670  -14.6970 C.3     9  LEU9        0.0022
     31  CD1       -1.4390   -6.9250  -13.4060 C.3     9  LEU9        0.0001
     32  CD2       -0.4910   -8.9720  -14.4300 C.3     9  LEU9        0.0001
     33  N         -2.4820    1.2120   -7.7670 N.3    90  PHE90      -0.1241
     34  CA        -2.4860   -0.0750   -7.1290 C.3    90  PHE90       0.1605
     35  C         -2.6670    0.0860   -5.6160 C.2    90  PHE90       0.2264
     36  O         -2.1660    1.0410   -5.0220 O.2    90  PHE90      -0.2867
     37  CB        -1.2010   -0.8220   -7.5250 C.3    90  PHE90       0.0534
     38  CG        -1.2480   -2.3170   -7.3500 C.ar   90  PHE90      -0.0203
     39  CD1       -2.0740   -3.1160   -8.1350 C.ar   90  PHE90      -0.0042
     40  CD2       -0.4070   -2.9130   -6.4120 C.ar   90  PHE90      -0.0042
     41  CE1       -2.0750   -4.4960   -7.9610 C.ar   90  PHE90      -0.0003
     42  CE2       -0.3880   -4.2870   -6.2180 C.ar   90  PHE90      -0.0003
     43  CZ        -1.2200   -5.0680   -7.0190 C.ar   90  PHE90      -0.0000
     44  N          2.8520   -9.0250   -5.1820 N.3   142  LEU142     -0.1245
     45  CA         1.8100   -8.5070   -6.0540 C.3   142  LEU142      0.1561
     46  C          2.1340   -7.1290   -6.6580 C.2   142  LEU142      0.2260
     47  O          1.7350   -6.7580   -7.7630 O.2   142  LEU142     -0.2867
     48  CB         0.5100   -8.3630   -5.2740 C.3   142  LEU142      0.0270
     49  CG        -0.0740   -9.6740   -4.7990 C.3   142  LEU142      0.0019
     50  CD1       -1.3920   -9.3630   -4.1020 C.3   142  LEU142      0.0001
     51  CD2       -0.2850  -10.5900   -5.9910 C.3   142  LEU142      0.0001
     52  N          4.5650   -7.5280   -9.2850 N.3   145  GLU145     -0.1231
     53  CA         3.8770   -8.1610  -10.3700 C.3   145  GLU145      0.1699
     54  C          3.2160   -7.0860  -11.1840 C.2   145  GLU145      0.2592
     55  O          3.2860   -7.0670  -12.3920 O.2   145  GLU145     -0.2718
     56  CB         2.9280   -9.3110   -9.9460 C.3   145  GLU145      0.0402
     57  CG         2.2310   -9.9900  -11.1410 C.3   145  GLU145      0.1161
     58  CD         1.4600  -11.2350  -10.7640 C.2   145  GLU145      0.3649
     59  OE1        1.2020  -11.5430   -9.6330 O.co2 145  GLU145     -0.2457
     60  OE2        1.0800  -11.9520  -11.7810 O.co2 145  GLU145     -0.2457
     61  N          2.5700   -6.1710  -10.5190 N.am  146  TYR146     -0.1976
     62  CA         1.9420   -5.0800  -11.2210 C.3   146  TYR146      0.1639
     63  C          2.9470   -4.2250  -11.9500 C.2   146  TYR146      0.2290
     64  O          2.8830   -4.1040  -13.1670 O.2   146  TYR146     -0.2864
     65  CB         1.1930   -4.2110  -10.2160 C.3   146  TYR146      0.0560
     66  CG         0.6510   -2.9130  -10.7260 C.ar  146  TYR146     -0.0198
     67  CD1       -0.4910   -2.8620  -11.5140 C.ar  146  TYR146     -0.0009
     68  CD2        1.2870   -1.7120  -10.4160 C.ar  146  TYR146     -0.0009
     69  CE1       -1.0020   -1.6500  -11.9820 C.ar  146  TYR146      0.0417
     70  CE2        0.7930   -0.4920  -10.8790 C.ar  146  TYR146      0.0417
     71  CZ        -0.3610   -0.4580  -11.6530 C.ar  146  TYR146      0.1957
     72  OH        -0.8500    0.7270  -12.0950 O.3   146  TYR146     -0.2866
     73  N          5.1870  -17.1630   -6.2860 N.3   281  LYS281     -0.1245
     74  CA         3.8760  -17.3030   -5.7280 C.3   281  LYS281      0.1561
     75  C          3.5770  -18.7730   -5.3990 C.2   281  LYS281      0.2260
     76  O          2.8340  -19.1020   -4.4660 O.2   281  LYS281     -0.2867
     77  CB         2.8400  -16.7040   -6.6700 C.3   281  LYS281      0.0271
     78  CG         3.0960  -15.2330   -6.9390 C.3   281  LYS281      0.0035
     79  CD         2.1800  -14.6690   -8.0060 C.3   281  LYS281      0.0206
     80  CE         0.7790  -14.3830   -7.5300 C.3   281  LYS281      0.1093
     81  NZ        -0.0820  -13.7120   -8.5310 N.3   281  LYS281     -0.1314
     82  N         -5.4150  -13.4510   -3.6930 N.3   292  ILE292     -0.1245
     83  CA        -6.5000  -12.6270   -4.0130 C.3   292  ILE292      0.1561
     84  C         -6.9810  -11.8290   -2.8460 C.2   292  ILE292      0.2260
     85  O         -7.2060  -10.6200   -2.9300 O.2   292  ILE292     -0.2867
     86  CB        -7.5480  -13.4520   -4.7160 C.3   292  ILE292      0.0252
     87  CG1       -6.9240  -14.0810   -5.9700 C.3   292  ILE292      0.0019
     88  CG2       -8.7250  -12.5600   -5.0730 C.3   292  ILE292      0.0019
     89  CD1       -5.6370  -13.3900   -6.4600 C.3   292  ILE292      0.0001
     90  N         -4.7280   -9.0540   -2.0860 N.3   295  TYR295     -0.1227
     91  CA        -4.9790   -7.9710   -3.0160 C.3   295  TYR295      0.1736
     92  C         -6.2120   -7.2080   -2.5920 C.2   295  TYR295      0.2595
     93  O         -6.2540   -5.9770   -2.6400 O.2   295  TYR295     -0.2718
     94  CB        -5.1340   -8.4530   -4.4950 C.3   295  TYR295      0.0548
     95  CG        -5.6850   -7.3540   -5.4150 C.ar  295  TYR295     -0.0200
     96  CD1       -4.8870   -6.3490   -5.9760 C.ar  295  TYR295     -0.0009
     97  CD2       -7.0510   -7.3270   -5.7020 C.ar  295  TYR295     -0.0009
     98  CE1       -5.4350   -5.3510   -6.7910 C.ar  295  TYR295      0.0417
     99  CE2       -7.6150   -6.3270   -6.5000 C.ar  295  TYR295      0.0417
    100  CZ        -6.8070   -5.3390   -7.0570 C.ar  295  TYR295      0.1957
    101  OH        -7.3740   -4.3650   -7.8460 O.3   295  TYR295     -0.2866
    102  N         -7.2180   -7.9810   -2.1800 N.am  296  GLN296     -0.1979
    103  CA        -8.4880   -7.4400   -1.7610 C.3   296  GLN296      0.1601
    104  C         -8.4900   -6.8140   -0.4020 C.2   296  GLN296      0.2287
    105  O         -9.4070   -6.0720   -0.0710 O.2   296  GLN296     -0.2864
    106  CB        -9.6270   -8.4240   -1.9240 C.3   296  GLN296      0.0394
    107  CG        -9.9400   -8.5750   -3.4050 C.3   296  GLN296      0.0908
    108  CD       -11.2010   -9.3600   -3.5910 C.2   296  GLN296      0.2608
    109  OE1      -11.7120   -9.9760   -2.6430 O.2   296  GLN296     -0.2717
    110  NE2      -11.6970   -9.3280   -4.8300 N.am  296  GLN296     -0.0878
@<TRIPOS>BOND
     1    28    27    2
     2    27    26    1
     3    29    26    1
     4    29    30    1
     5    14    15    1
     6    26    25    1
     7    17    16    2
     8    25    16   am
     9    16    15    1
    10     1     2    1
    11    15    18    1
    12    10     9    2
    13    30    32    1
    14    30    31    1
    15     9     8    1
    16     2     3    1
    17     2     5    1
    18     4     3    2
    19     3     7   am
    20     7     8    1
    21    18    19    1
    22     8    11    1
    23    64    63    2
    24     5     6    1
    25    11    12    1
    26    11    13    1
    27    19    21   ar
    28    19    20   ar
    29    55    54    2
    30    21    23   ar
    31    72    71    1
    32    69    71   ar
    33    69    67   ar
    34    63    62    1
    35    20    22   ar
    36    60    58   ar
    37    71    70   ar
    38    67    66   ar
    39    23    24   ar
    40    62    61    1
    41    62    65    1
    42    54    61   am
    43    54    53    1
    44    57    58    1
    45    57    56    1
    46    22    24   ar
    47    70    68   ar
    48    58    59   ar
    49    66    68   ar
    50    66    65    1
    51    53    56    1
    52    53    52    1
    53    81    80    1
    54    39    41   ar
    55    39    38   ar
    56    79    80    1
    57    79    78    1
    58    41    43   ar
    59   101   100    1
    60    33    34    1
    61    47    46    2
    62    37    38    1
    63    37    34    1
    64    38    40   ar
    65    34    35    1
    66   100    98   ar
    67   100    99   ar
    68    43    42   ar
    69    78    77    1
    70    98    96   ar
    71    77    74    1
    72    46    45    1
    73    99    97   ar
    74    89    87    1
    75    40    42   ar
    76    73    74    1
    77    45    48    1
    78    45    44    1
    79    51    49    1
    80    96    95   ar
    81    87    86    1
    82    74    75    1
    83    97    95   ar
    84    35    36    2
    85    95    94    1
    86    75    76    2
    87    48    49    1
    88    88    86    1
    89   110   108   am
    90    49    50    1
    91    86    83    1
    92    94    91    1
    93    83    82    1
    94    83    84    1
    95   108   107    1
    96   108   109    2
    97   107   106    1
    98    91    92    1
    99    91    90    1
   100    85    84    2
   101    93    92    2
   102    92   102   am
   103   102   103    1
   104   106   103    1
   105   103   104    1
   106   104   105    2
