@<TRIPOS>MOLECULE
tmp/1apuA00.pdb
 224 209 0 0 0
SMALL
GASTEIGER

@<TRIPOS>ATOM
      1  N         16.0360    5.9080   11.1210 N.3    15  GLU15      -0.1231
      2  CA        16.5630    5.6860   12.5030 C.3    15  GLU15       0.1699
      3  C         17.8130    6.5560   12.7450 C.2    15  GLU15       0.2592
      4  O         17.9710    7.0800   13.8750 O.2    15  GLU15      -0.2718
      5  CB        16.8610    4.2590   12.7780 C.3    15  GLU15       0.0402
      6  CG        17.2340    3.8720   14.2300 C.3    15  GLU15       0.1161
      7  CD        17.6130    2.4010   14.0730 C.2    15  GLU15       0.3649
      8  OE1       18.6270    2.1030   13.4520 O.co2  15  GLU15      -0.2457
      9  OE2       16.7060    1.6850   14.4830 O.co2  15  GLU15      -0.2457
     10  N         18.6200    6.6450   11.7060 N.am   16  GLU16      -0.1979
     11  CA        19.8130    7.5170   11.8210 C.3    16  GLU16       0.1602
     12  C         20.1210    8.1020   10.4580 C.2    16  GLU16       0.2287
     13  O         19.6110    7.5990    9.4520 O.2    16  GLU16      -0.2864
     14  CB        21.0330    6.7900   12.3610 C.3    16  GLU16       0.0415
     15  CG        21.3520    5.4700   11.6720 C.3    16  GLU16       0.1163
     16  CD        22.4530    4.8160   12.5050 C.2    16  GLU16       0.3649
     17  OE1       23.5910    5.1390   12.2380 O.co2  16  GLU16      -0.2457
     18  OE2       22.0870    4.1210   13.4650 O.co2  16  GLU16      -0.2457
     19  N         27.7360    9.0280   11.4800 N.3    31  ASN31      -0.1240
     20  CA        26.4420    9.6850   11.9400 C.3    31  ASN31       0.1653
     21  C         26.8160   11.0430   12.5060 C.2    31  ASN31       0.2266
     22  O         27.5100   11.0760   13.5870 O.2    31  ASN31      -0.2867
     23  CB        25.9110    8.6600   12.9380 C.3    31  ASN31       0.1155
     24  CG        24.6120    8.9800   13.6340 C.2    31  ASN31       0.2627
     25  OD1       24.0410    8.1870   14.4250 O.2    31  ASN31      -0.2716
     26  ND2       24.0780   10.1650   13.3880 N.am   31  ASN31      -0.0877
     27  N         26.4010   14.0860   14.7580 N.3    33  ASP33      -0.1239
     28  CA        25.6810   14.2130   16.0180 C.3    33  ASP33       0.1674
     29  C         25.8830   15.5660   16.6940 C.2    33  ASP33       0.2266
     30  O         26.9410   15.7550   17.3390 O.2    33  ASP33      -0.2867
     31  CB        26.2370   13.0180   16.8330 C.3    33  ASP33       0.1410
     32  CG        25.5670   12.9500   18.1770 C.2    33  ASP33       0.3668
     33  OD1       26.1740   12.4390   19.1160 O.co2  33  ASP33      -0.2456
     34  OD2       24.4660   13.4770   18.4180 O.co2  33  ASP33      -0.2456
     35  N         24.6100   16.3730   19.2760 N.3    35  GLY35      -0.1210
     36  CA        24.5230   16.2800   20.7470 C.3    35  GLY35       0.1956
     37  C         25.8230   15.8620   21.3830 C.2    35  GLY35       0.2612
     38  O         25.7990   15.6570   22.6410 O.2    35  GLY35      -0.2717
     39  N         26.8890   15.6280   20.6410 N.am   36  SER36      -0.1952
     40  CA        28.1860   15.2210   21.2870 C.3    36  SER36       0.1924
     41  C         29.3060   15.8860   20.5240 C.2    36  SER36       0.2314
     42  O         29.1360   16.4200   19.3880 O.2    36  SER36      -0.2863
     43  CB        28.3300   13.6980   21.4040 C.3    36  SER36       0.2116
     44  OG        28.6290   13.1860   20.0740 O.3    36  SER36      -0.2180
     45  N         29.9030    7.9750   27.0600 N.3    74  SER74      -0.1202
     46  CA        28.6410    7.2070   27.2890 C.3    74  SER74       0.2020
     47  C         27.5020    8.0900   26.7380 C.2    74  SER74       0.2619
     48  O         27.4830    9.2920   27.0060 O.2    74  SER74      -0.2717
     49  CB        28.4320    6.6680   28.6720 C.3    74  SER74       0.2103
     50  OG        28.5800    7.6280   29.6940 O.3    74  SER74      -0.2182
     51  N         26.6360    7.4790   25.9440 N.am   75  TYR75      -0.1961
     52  CA        25.4950    8.1560   25.3400 C.3    75  TYR75       0.1771
     53  C         24.2170    7.9200   26.1610 C.2    75  TYR75       0.2620
     54  O         24.1260    7.1000   27.0850 O.2    75  TYR75      -0.2715
     55  CB        25.2880    7.6440   23.9020 C.3    75  TYR75       0.0574
     56  CG        26.5290    7.9930   23.0950 C.ar   75  TYR75      -0.0198
     57  CD1       27.4640    7.0090   22.7670 C.ar   75  TYR75      -0.0009
     58  CD2       26.7370    9.3040   22.6890 C.ar   75  TYR75      -0.0009
     59  CE1       28.6050    7.3420   22.0260 C.ar   75  TYR75       0.0417
     60  CE2       27.8690    9.6650   21.9430 C.ar   75  TYR75       0.0417
     61  CZ        28.7870    8.6590   21.6150 C.ar   75  TYR75       0.1957
     62  OH        29.8740    9.0310   20.8830 O.3    75  TYR75      -0.2866
     63  N         23.2080    8.6480   25.7280 N.am   76  GLY76      -0.1940
     64  CA        21.8680    8.6870   26.2770 C.3    76  GLY76       0.2014
     65  C         21.0890    7.3780   26.2350 C.2    76  GLY76       0.2638
     66  O         20.2210    7.2070   27.1230 O.2    76  GLY76      -0.2714
     67  N         21.4000    6.5020   25.2920 N.am   77  ASP77      -0.1971
     68  CA        20.6890    5.2100   25.1890 C.3    77  ASP77       0.1709
     69  C         21.4280    4.0430   25.8390 C.2    77  ASP77       0.2293
     70  O         20.9210    2.9100   25.7170 O.2    77  ASP77      -0.2864
     71  CB        20.2290    4.9590   23.7340 C.3    77  ASP77       0.1436
     72  CG        21.4680    5.0360   22.8410 C.2    77  ASP77       0.3671
     73  OD1       21.3540    5.2220   21.6180 O.co2  77  ASP77      -0.2456
     74  OD2       22.5750    4.8840   23.4600 O.co2  77  ASP77      -0.2456
     75  N         24.7750    3.2800   25.3650 N.3    79  SER79      -0.1217
     76  CA        25.9260    2.8940   24.5400 C.3    79  SER79       0.1889
     77  C         27.1560    3.6840   24.9740 C.2    79  SER79       0.2288
     78  O         27.0440    4.7780   25.5470 O.2    79  SER79      -0.2866
     79  CB        25.4790    3.0780   23.1160 C.3    79  SER79       0.2089
     80  OG        25.2140    4.4350   22.7990 O.3    79  SER79      -0.2183
     81  N         26.7220   -0.5860   19.3960 N.3   112  PHE112     -0.1241
     82  CA        27.5020   -0.2040   18.2090 C.3   112  PHE112      0.1605
     83  C         27.9310   -1.4460   17.4430 C.2   112  PHE112      0.2264
     84  O         27.9590   -1.4080   16.1930 O.2   112  PHE112     -0.2867
     85  CB        28.6790    0.7080   18.5200 C.3   112  PHE112      0.0534
     86  CG        28.2830    1.9910   19.1770 C.ar  112  PHE112     -0.0203
     87  CD1       28.5880    2.2070   20.5290 C.ar  112  PHE112     -0.0042
     88  CD2       27.6000    2.9520   18.4260 C.ar  112  PHE112     -0.0042
     89  CE1       28.2680    3.4080   21.1450 C.ar  112  PHE112     -0.0003
     90  CE2       27.2680    4.1840   19.0450 C.ar  112  PHE112     -0.0003
     91  CZ        27.5880    4.3840   20.4110 C.ar  112  PHE112     -0.0000
     92  N         25.2130   -2.3100   15.1570 N.3   115  ASP115     -0.1239
     93  CA        24.7230   -1.3770   14.1200 C.3   115  ASP115      0.1674
     94  C         25.6690   -1.2490   12.9350 C.2   115  ASP115      0.2266
     95  O         26.6460   -0.4860   13.0940 O.2   115  ASP115     -0.2867
     96  CB        24.4060   -0.0710   14.8500 C.3   115  ASP115      0.1410
     97  CG        23.9060    1.0400   13.9190 C.2   115  ASP115      0.3668
     98  OD1       23.7230    0.8460   12.7180 O.co2 115  ASP115     -0.2456
     99  OD2       23.6930    2.1370   14.5010 O.co2 115  ASP115     -0.2456
    100  N         30.9060    8.2230   14.7090 N.3   121  LEU121     -0.1245
    101  CA        30.1660    9.4760   14.8510 C.3   121  LEU121      0.1561
    102  C         31.0410   10.7040   14.6010 C.2   121  LEU121      0.2260
    103  O         32.2500   10.6480   14.8730 O.2   121  LEU121     -0.2867
    104  CB        29.6860    9.5120   16.3270 C.3   121  LEU121      0.0270
    105  CG        28.3090    9.0130   16.6900 C.3   121  LEU121      0.0019
    106  CD1       28.2470    7.5120   16.4400 C.3   121  LEU121      0.0001
    107  CD2       28.0150    9.2420   18.1720 C.3   121  LEU121      0.0001
    108  N         25.9110   22.1820   24.7020 N.3   190  PHE190     -0.1241
    109  CA        24.8940   21.7750   23.7200 C.3   190  PHE190      0.1605
    110  C         24.3130   22.9920   22.9670 C.2   190  PHE190      0.2264
    111  O         24.4800   24.1010   23.4300 O.2   190  PHE190     -0.2867
    112  CB        23.6760   21.0320   24.3420 C.3   190  PHE190      0.0534
    113  CG        24.0400   19.7820   25.1330 C.ar  190  PHE190     -0.0203
    114  CD1       24.5790   18.6650   24.4790 C.ar  190  PHE190     -0.0042
    115  CD2       23.8600   19.7580   26.5160 C.ar  190  PHE190     -0.0042
    116  CE1       24.9010   17.5200   25.2050 C.ar  190  PHE190     -0.0003
    117  CE2       24.1970   18.6030   27.2550 C.ar  190  PHE190     -0.0003
    118  CZ        24.7000   17.4680   26.5860 C.ar  190  PHE190     -0.0000
    119  N         17.5050   20.6260   23.5770 N.3   211  ILE211     -0.1245
    120  CA        18.7000   20.6790   22.7010 C.3   211  ILE211      0.1561
    121  C         18.3350   20.1940   21.2970 C.2   211  ILE211      0.2260
    122  O         17.5200   19.2330   21.2110 O.2   211  ILE211     -0.2867
    123  CB        19.8850   19.8630   23.3340 C.3   211  ILE211      0.0252
    124  CG1       19.5930   18.3360   23.2940 C.3   211  ILE211      0.0019
    125  CG2       20.1970   20.3690   24.7600 C.3   211  ILE211      0.0019
    126  CD1       20.9290   17.5010   23.5470 C.3   211  ILE211      0.0001
    127  N         19.3460   18.0490   18.4990 N.3   213  ASP213     -0.1239
    128  CA        20.2100   16.8440   18.3990 C.3   213  ASP213      0.1674
    129  C         19.9500   15.9580   17.1650 C.2   213  ASP213      0.2266
    130  O         19.0470   15.0980   17.1950 O.2   213  ASP213     -0.2867
    131  CB        20.0910   16.0230   19.6940 C.3   213  ASP213      0.1410
    132  CG        21.1190   14.8940   19.7550 C.2   213  ASP213      0.3668
    133  OD1       21.9880   14.7750   18.8740 O.co2 213  ASP213     -0.2456
    134  OD2       21.1370   14.1060   20.7210 O.co2 213  ASP213     -0.2456
    135  N         21.5600   13.4860   16.3690 N.3   215  GLY215     -0.1210
    136  CA        21.8950   12.0790   16.7020 C.3   215  GLY215      0.1956
    137  C         20.8570   11.3230   17.5190 C.2   215  GLY215      0.2613
    138  O         21.0880   10.1620   17.9470 O.2   215  GLY215     -0.2717
    139  N         19.7400   11.9790   17.7700 N.am  216  THR216     -0.1938
    140  CA        18.6410   11.3290   18.5350 C.3   216  THR216      0.2028
    141  C         17.5150   11.1160   17.4960 C.2   216  THR216      0.2643
    142  O         17.1310   12.0540   16.7820 O.2   216  THR216     -0.2714
    143  CB        18.1550   12.1290   19.7890 C.3   216  THR216      0.1808
    144  OG1       19.1640   12.0600   20.8110 O.3   216  THR216     -0.2208
    145  CG2       16.8220   11.5680   20.3530 C.3   216  THR216      0.0379
    146  N         17.0350    9.9040   17.4430 N.am  217  THR217     -0.1936
    147  CA        15.9990    9.5500   16.4780 C.3   217  THR217      0.2028
    148  C         14.6560   10.2530   16.7520 C.2   217  THR217      0.2642
    149  O         14.0280   10.6750   15.7500 O.2   217  THR217     -0.2714
    150  CB        15.7540    7.9730   16.4900 C.3   217  THR217      0.1808
    151  OG1       17.0270    7.3070   16.3420 O.3   217  THR217     -0.2208
    152  CG2       14.7500    7.6170   15.3680 C.3   217  THR217      0.0379
    153  N         14.2650   10.2700   18.0210 N.am  218  LEU218     -0.1977
    154  CA        12.8950   10.7760   18.3300 C.3   218  LEU218      0.1596
    155  C         12.8470   12.1580   18.9500 C.2   218  LEU218      0.2287
    156  O         13.8850   12.7830   19.0360 O.2   218  LEU218     -0.2864
    157  CB        12.2650    9.6800   19.2380 C.3   218  LEU218      0.0297
    158  CG        12.2190    8.2810   18.6280 C.3   218  LEU218      0.0022
    159  CD1       11.5470    7.3210   19.6040 C.3   218  LEU218      0.0001
    160  CD2       11.4280    8.3410   17.3070 C.3   218  LEU218      0.0001
    161  N         12.0770   13.7050   22.2660 N.3   220  LEU220     -0.1245
    162  CA        11.9440   13.2740   23.6720 C.3   220  LEU220      0.1561
    163  C         11.5710   14.4640   24.5720 C.2   220  LEU220      0.2260
    164  O         12.3720   15.4200   24.7100 O.2   220  LEU220     -0.2867
    165  CB        13.2020   12.5520   24.1410 C.3   220  LEU220      0.0270
    166  CG        13.7470   11.4830   23.1800 C.3   220  LEU220      0.0019
    167  CD1       15.0460   10.9070   23.7820 C.3   220  LEU220      0.0001
    168  CD2       12.6580   10.4270   22.9960 C.3   220  LEU220      0.0001
    169  N          8.4980   -2.5190   21.5420 N.3   242  ALA242     -0.1231
    170  CA         8.6310   -1.4540   20.5300 C.3   242  ALA242      0.1694
    171  C          9.5330   -0.3490   21.0250 C.2   242  ALA242      0.2592
    172  O         10.3550    0.1880   20.2360 O.2   242  ALA242     -0.2718
    173  CB         7.2190   -1.0790   20.1250 C.3   242  ALA242      0.0304
    174  N          9.4410    0.0900   22.2520 N.am  243  GLY243     -0.1957
    175  CA        10.3250    1.1810   22.7330 C.3   243  GLY243      0.1869
    176  C          9.5650    2.3670   23.3230 C.2   243  GLY243      0.2309
    177  O         10.1830    3.4230   23.6210 O.2   243  GLY243     -0.2863
    178  N          6.3110    7.3290   13.4110 N.3   274  TYR274     -0.1241
    179  CA         7.7160    6.9540   13.1200 C.3   274  TYR274      0.1605
    180  C          7.8090    5.7990   12.1240 C.2   274  TYR274      0.2264
    181  O          8.6350    5.8020   11.1840 O.2   274  TYR274     -0.2867
    182  CB         8.4500    6.6030   14.4090 C.3   274  TYR274      0.0534
    183  CG         9.8270    5.9980   14.2200 C.ar  274  TYR274     -0.0201
    184  CD1       10.8840    6.7920   13.7760 C.ar  274  TYR274     -0.0009
    185  CD2       10.0830    4.6570   14.4950 C.ar  274  TYR274     -0.0009
    186  CE1       12.1630    6.2660   13.5940 C.ar  274  TYR274      0.0417
    187  CE2       11.3620    4.1020   14.3240 C.ar  274  TYR274      0.0417
    188  CZ        12.3940    4.9230   13.8780 C.ar  274  TYR274      0.1957
    189  OH        13.6600    4.4010   13.7020 O.3   274  TYR274     -0.2866
    190  N          5.2800    2.9690   15.9570 N.3   284  LEU284     -0.1245
    191  CA         5.8710    3.6570   17.1310 C.3   284  LEU284      0.1561
    192  C          5.6540    5.1760   16.9970 C.2   284  LEU284      0.2260
    193  O          5.8250    5.6600   15.8630 O.2   284  LEU284     -0.2867
    194  CB         7.3860    3.2650   17.1590 C.3   284  LEU284      0.0270
    195  CG         8.1400    3.8350   18.3670 C.3   284  LEU284      0.0019
    196  CD1        7.6770    3.2780   19.7050 C.3   284  LEU284      0.0001
    197  CD2        9.6460    3.5870   18.2040 C.3   284  LEU284      0.0001
    198  N         15.2220   13.4740   32.5060 N.3   293  ILE293     -0.1301
    199  CA        16.4990   14.1620   32.5600 C.3   293  ILE293      0.1246
    200  C         16.3630   15.6830   32.7420 C.3   293  ILE293      0.2009
    201  O         17.4750   16.2030   32.9960 O.3   293  ILE293     -0.2188
    202  CB        17.4780   13.9600   31.3620 C.3   293  ILE293      0.0202
    203  CG1       16.7020   14.3760   30.0880 C.3   293  ILE293      0.0015
    204  CG2       18.1490   12.5910   31.2730 C.3   293  ILE293      0.0016
    205  CD1       17.5680   14.3390   28.8100 C.3   293  ILE293      0.0000
    206  N         15.3900   18.1420   30.5440 N.3   295  PHE295     -0.1241
    207  CA        15.4190   19.0270   29.3360 C.3   295  PHE295      0.1605
    208  C         14.9100   18.1550   28.1850 C.2   295  PHE295      0.2264
    209  O         14.9420   16.9030   28.3730 O.2   295  PHE295     -0.2867
    210  CB        16.7790   19.6580   29.1310 C.3   295  PHE295      0.0534
    211  CG        17.9360   18.7080   28.9680 C.ar  295  PHE295     -0.0203
    212  CD1       18.6920   18.3190   30.0620 C.ar  295  PHE295     -0.0042
    213  CD2       18.2390   18.2000   27.7040 C.ar  295  PHE295     -0.0042
    214  CE1       19.7690   17.4500   29.9370 C.ar  295  PHE295     -0.0003
    215  CE2       19.3320   17.3100   27.5530 C.ar  295  PHE295     -0.0003
    216  CZ        20.0950   16.9400   28.6730 C.ar  295  PHE295     -0.0000
    217  N         14.7810   16.7270   24.1630 N.3   297  ILE297     -0.1301
    218  CA        15.6740   16.3970   23.0710 C.3   297  ILE297      0.1246
    219  C         14.9560   16.5430   21.7240 C.3   297  ILE297      0.2009
    220  O         14.1450   15.6350   21.5110 O.3   297  ILE297     -0.2188
    221  CB        16.3860   15.0110   23.1860 C.3   297  ILE297      0.0202
    222  CG1       17.1360   14.9520   24.5450 C.3   297  ILE297      0.0015
    223  CG2       17.3730   14.8420   21.9650 C.3   297  ILE297      0.0016
    224  CD1       17.8850   13.6270   24.8500 C.3   297  ILE297      0.0000
@<TRIPOS>BOND
     1    13    12    2
     2    12    11    1
     3     1     2    1
     4   181   180    2
     5    19    20    1
     6    15    14    1
     7    15    16    1
     8    10    11    1
     9    10     3   am
    10    11    14    1
    11    20    21    1
    12    20    23    1
    13   180   179    1
    14    17    16   ar
    15     2     3    1
    16     2     5    1
    17    16    18   ar
    18    21    22    2
    19    98    97   ar
    20     3     4    2
    21     5     6    1
    22    94    95    2
    23    94    93    1
    24    23    24    1
    25   179   178    1
    26   179   182    1
    27    26    24   am
    28     8     7   ar
    29   186   184   ar
    30   186   188   ar
    31    24    25    2
    32   189   188    1
    33   184   183   ar
    34   188   187   ar
    35    97    99   ar
    36    97    96    1
    37     7     6    1
    38     7     9   ar
    39    93    96    1
    40    93    92    1
    41   183   182    1
    42   183   185   ar
    43   187   185   ar
    44   102   101    1
    45   102   103    2
    46   100   101    1
    47    27    28    1
    48   101   104    1
    49   152   150    1
    50   149   148    2
    51   193   192    2
    52   190   191    1
    53    28    29    1
    54    28    31    1
    55    84    83    2
    56   104   105    1
    57   151   150    1
    58   135   136    1
    59   106   105    1
    60   147   150    1
    61   147   148    1
    62   147   146    1
    63   105   107    1
    64    29    30    2
    65   136   137    1
    66   148   153   am
    67   142   141    2
    68    31    32    1
    69   192   191    1
    70   191   194    1
    71   194   195    1
    72   129   130    2
    73   129   128    1
    74   160   158    1
    75   146   141   am
    76    83    82    1
    77   141   140    1
    78   137   139   am
    79   137   138    2
    80   139   140    1
    81   153   154    1
    82    32    34   ar
    83    32    33   ar
    84   197   195    1
    85    82    85    1
    86    82    81    1
    87   154   155    1
    88   154   157    1
    89   195   196    1
    90   128   127    1
    91   128   131    1
    92    88    90   ar
    93    88    86   ar
    94    85    86    1
    95   140   143    1
    96   158   157    1
    97   158   159    1
    98   133   132   ar
    99   155   156    2
   100    90    91   ar
   101    86    87   ar
   102    35    36    1
   103    42    41    2
   104   131   132    1
   105   132   134   ar
   106   143   145    1
   107   143   144    1
   108    44    43    1
   109   173   170    1
   110   172   171    2
   111    91    89   ar
   112    41    40    1
   113    87    89   ar
   114   170   171    1
   115   170   169    1
   116    39    40    1
   117    39    37   am
   118    36    37    1
   119    62    61    1
   120   171   174   am
   121   122   121    2
   122    40    43    1
   123   121   120    1
   124    37    38    2
   125   220   219    1
   126    61    60   ar
   127    61    59   ar
   128    73    72   ar
   129   219   218    1
   130    60    58   ar
   131   223   221    1
   132    59    57   ar
   133   174   175    1
   134   161   162    1
   135    58    56   ar
   136   120   123    1
   137   120   119    1
   138   175   176    1
   139    57    56   ar
   140    80    79    1
   141    72    74   ar
   142    72    71    1
   143   110   111    2
   144   110   109    1
   145   168   166    1
   146   218   221    1
   147   218   217    1
   148    56    55    1
   149    79    76    1
   150   166   167    1
   151   166   165    1
   152   221   222    1
   153   124   123    1
   154   124   126    1
   155   176   177    2
   156   123   125    1
   157   162   165    1
   158   162   163    1
   159   109   112    1
   160   109   108    1
   161    71    68    1
   162    55    52    1
   163   112   113    1
   164   114   113   ar
   165   114   116   ar
   166    76    77    1
   167    76    75    1
   168   222   224    1
   169   163   164    2
   170    77    78    2
   171   113   115   ar
   172    68    67    1
   173    68    69    1
   174   116   118   ar
   175    67    65   am
   176    52    51    1
   177    52    53    1
   178    70    69    2
   179    63    53   am
   180    63    64    1
   181    51    47   am
   182    53    54    2
   183    65    64    1
   184    65    66    2
   185   115   117   ar
   186   118   117   ar
   187    47    48    2
   188    47    46    1
   189    45    46    1
   190    46    49    1
   191   215   213   ar
   192   215   216   ar
   193   213   211   ar
   194   208   209    2
   195   208   207    1
   196    49    50    1
   197   216   214   ar
   198   205   203    1
   199   211   210    1
   200   211   212   ar
   201   210   207    1
   202   207   206    1
   203   214   212   ar
   204   203   202    1
   205   204   202    1
   206   202   199    1
   207   198   199    1
   208   199   200    1
   209   200   201    1
