@<TRIPOS>MOLECULE
tmp/1apvA00.pdb
 221 206 0 0 0
SMALL
GASTEIGER

@<TRIPOS>ATOM
      1  N         16.0710    5.9490   11.2810 N.3    15  GLU15      -0.1231
      2  CA        16.5640    5.7350   12.6550 C.3    15  GLU15       0.1699
      3  C         17.8210    6.6140   12.8770 C.2    15  GLU15       0.2592
      4  O         18.0400    7.1200   13.9850 O.2    15  GLU15      -0.2718
      5  CB        16.8370    4.2990   12.9000 C.3    15  GLU15       0.0402
      6  CG        17.2820    3.9540   14.3460 C.3    15  GLU15       0.1161
      7  CD        17.4830    2.4600   14.4350 C.2    15  GLU15       0.3649
      8  OE1       17.7520    1.7740   13.4710 O.co2  15  GLU15      -0.2457
      9  OE2       17.3320    2.0410   15.5910 O.co2  15  GLU15      -0.2457
     10  N         18.6280    6.7440   11.8530 N.am   16  GLU16      -0.1979
     11  CA        19.8510    7.5820   11.8960 C.3    16  GLU16       0.1602
     12  C         20.1340    8.0970   10.5090 C.2    16  GLU16       0.2287
     13  O         19.5680    7.6140    9.5060 O.2    16  GLU16      -0.2864
     14  CB        21.0490    6.8890   12.4980 C.3    16  GLU16       0.0415
     15  CG        21.5240    5.6420   11.7810 C.3    16  GLU16       0.1163
     16  CD        22.6140    4.9420   12.5780 C.2    16  GLU16       0.3649
     17  OE1       23.7470    4.9410   12.1760 O.co2  16  GLU16      -0.2457
     18  OE2       22.2480    4.4300   13.6460 O.co2  16  GLU16      -0.2457
     19  N         27.7730    9.0750   11.4250 N.3    31  ASN31      -0.1240
     20  CA        26.4870    9.6680   11.9100 C.3    31  ASN31       0.1653
     21  C         26.8600   11.0380   12.4840 C.2    31  ASN31       0.2266
     22  O         27.6230   11.0470   13.4750 O.2    31  ASN31      -0.2867
     23  CB        26.0070    8.6750   12.9820 C.3    31  ASN31       0.1155
     24  CG        24.6830    9.0260   13.6280 C.2    31  ASN31       0.2627
     25  OD1       24.0750    8.2380   14.3950 O.2    31  ASN31      -0.2716
     26  ND2       24.1950   10.2120   13.3670 N.am   31  ASN31      -0.0877
     27  N         26.3700   14.0110   14.7310 N.3    33  ASP33      -0.1239
     28  CA        25.6110   14.1960   15.9580 C.3    33  ASP33       0.1674
     29  C         25.8550   15.4910   16.7130 C.2    33  ASP33       0.2266
     30  O         26.8880   15.6980   17.3410 O.2    33  ASP33      -0.2867
     31  CB        26.1640   12.9640   16.8080 C.3    33  ASP33       0.1410
     32  CG        25.5150   12.9620   18.1910 C.2    33  ASP33       0.3668
     33  OD1       26.1820   12.3660   19.0810 O.co2  33  ASP33      -0.2456
     34  OD2       24.4250   13.4990   18.4800 O.co2  33  ASP33      -0.2456
     35  N         24.6300   16.2880   19.3270 N.3    35  GLY35      -0.1210
     36  CA        24.5660   16.0870   20.7810 C.3    35  GLY35       0.1956
     37  C         25.8610   15.6660   21.4150 C.2    35  GLY35       0.2612
     38  O         25.8310   15.4860   22.6730 O.2    35  GLY35      -0.2717
     39  N         26.9520   15.4790   20.7000 N.am   36  SER36      -0.1952
     40  CA        28.2440   15.0690   21.3370 C.3    36  SER36       0.1924
     41  C         29.3440   15.7780   20.5840 C.2    36  SER36       0.2314
     42  O         29.1160   16.3490   19.4820 O.2    36  SER36      -0.2863
     43  CB        28.3590   13.5550   21.3940 C.3    36  SER36       0.2116
     44  OG        28.5730   13.0790   20.0400 O.3    36  SER36      -0.2180
     45  N         33.5680    7.6840   26.0360 N.3    73  ILE73      -0.1231
     46  CA        32.2530    8.3510   26.0120 C.3    73  ILE73       0.1692
     47  C         31.0980    7.4030   26.2780 C.2    73  ILE73       0.2593
     48  O         31.1520    6.2110   25.9260 O.2    73  ILE73      -0.2718
     49  CB        32.0870    9.1010   24.6200 C.3    73  ILE73       0.0266
     50  CG1       30.8130   10.0110   24.7680 C.3    73  ILE73       0.0019
     51  CG2       32.0320    8.1700   23.4080 C.3    73  ILE73       0.0020
     52  CD1       30.9570   11.1360   23.6560 C.3    73  ILE73       0.0001
     53  N         30.1060    7.9740   26.9350 N.am   74  SER74      -0.1938
     54  CA        28.8660    7.2280   27.2460 C.3    74  SER74       0.2055
     55  C         27.6810    8.0990   26.7700 C.2    74  SER74       0.2643
     56  O         27.6190    9.3040   27.0900 O.2    74  SER74      -0.2714
     57  CB        28.8610    6.6990   28.6600 C.3    74  SER74       0.2130
     58  OG        28.0140    7.3070   29.5590 O.3    74  SER74      -0.2179
     59  N         26.8210    7.4900   25.9860 N.am   75  TYR75      -0.1959
     60  CA        25.6420    8.1790   25.4370 C.3    75  TYR75       0.1771
     61  C         24.3940    7.8980   26.2520 C.2    75  TYR75       0.2620
     62  O         24.2430    6.9730   27.0930 O.2    75  TYR75      -0.2715
     63  CB        25.4140    7.7160   23.9880 C.3    75  TYR75       0.0574
     64  CG        26.6580    8.0350   23.1460 C.ar   75  TYR75      -0.0198
     65  CD1       27.6010    7.0350   22.8540 C.ar   75  TYR75      -0.0009
     66  CD2       26.8680    9.3250   22.6930 C.ar   75  TYR75      -0.0009
     67  CE1       28.7250    7.3370   22.0800 C.ar   75  TYR75       0.0417
     68  CE2       28.0020    9.6460   21.9320 C.ar   75  TYR75       0.0417
     69  CZ        28.9210    8.6460   21.6200 C.ar   75  TYR75       0.1957
     70  OH        29.9920    8.9730   20.8730 O.3    75  TYR75      -0.2866
     71  N         23.4040    8.7310   25.9540 N.am   76  GLY76      -0.1940
     72  CA        22.0720    8.7080   26.5530 C.3    76  GLY76       0.2014
     73  C         21.3210    7.3830   26.4270 C.2    76  GLY76       0.2638
     74  O         20.5320    7.0390   27.3630 O.2    76  GLY76      -0.2714
     75  N         21.5440    6.6640   25.3360 N.am   77  ASP77      -0.1971
     76  CA        20.8440    5.3640   25.1820 C.3    77  ASP77       0.1709
     77  C         21.6510    4.2470   25.8890 C.2    77  ASP77       0.2293
     78  O         21.2650    3.0880   25.7300 O.2    77  ASP77      -0.2864
     79  CB        20.4800    5.0230   23.7450 C.3    77  ASP77       0.1436
     80  CG        21.7310    4.9980   22.8900 C.2    77  ASP77       0.3671
     81  OD1       21.6250    5.0820   21.6430 O.co2  77  ASP77      -0.2456
     82  OD2       22.8890    4.9390   23.4330 O.co2  77  ASP77      -0.2456
     83  N         24.8810    3.3600   25.2800 N.3    79  SER79      -0.1217
     84  CA        25.9890    2.8660   24.4630 C.3    79  SER79       0.1889
     85  C         27.2560    3.6140   24.8960 C.2    79  SER79       0.2288
     86  O         27.1870    4.6600   25.5660 O.2    79  SER79      -0.2866
     87  CB        25.6210    2.9740   22.9820 C.3    79  SER79       0.2089
     88  OG        25.4520    4.3720   22.7170 O.3    79  SER79      -0.2183
     89  N         26.7980   -0.5190   19.2810 N.3   112  PHE112     -0.1241
     90  CA        27.6000   -0.1400   18.1070 C.3   112  PHE112      0.1605
     91  C         28.0100   -1.3940   17.3300 C.2   112  PHE112      0.2264
     92  O         28.0670   -1.3490   16.0780 O.2   112  PHE112     -0.2867
     93  CB        28.8040    0.7080   18.5290 C.3   112  PHE112      0.0534
     94  CG        28.3730    2.0430   19.0610 C.ar  112  PHE112     -0.0203
     95  CD1       28.6620    2.3930   20.3850 C.ar  112  PHE112     -0.0042
     96  CD2       27.6810    2.9140   18.2010 C.ar  112  PHE112     -0.0042
     97  CE1       28.2580    3.6540   20.8640 C.ar  112  PHE112     -0.0003
     98  CE2       27.2740    4.1760   18.6830 C.ar  112  PHE112     -0.0003
     99  CZ        27.5840    4.5200   20.0170 C.ar  112  PHE112     -0.0000
    100  N         25.2020   -2.3260   15.0260 N.3   115  ASP115     -0.1295
    101  CA        24.8260   -1.3700   13.9830 C.3   115  ASP115      0.1359
    102  C         25.7770   -1.3010   12.8090 C.3   115  ASP115      0.2015
    103  O         26.7670   -0.5660   12.9880 O.3   115  ASP115     -0.2188
    104  CB        24.6520    0.0120   14.6420 C.3   115  ASP115      0.1357
    105  CG        24.1020    1.1000   13.7260 C.2   115  ASP115      0.3664
    106  OD1       23.9650    0.9860   12.5010 O.co2 115  ASP115     -0.2456
    107  OD2       23.7680    2.1680   14.3200 O.co2 115  ASP115     -0.2456
    108  N         30.9460    8.1890   14.6770 N.3   121  LEU121     -0.1245
    109  CA        30.2300    9.4600   14.8390 C.3   121  LEU121      0.1561
    110  C         31.1240   10.6790   14.5850 C.2   121  LEU121      0.2260
    111  O         32.3080   10.6370   14.8570 O.2   121  LEU121     -0.2867
    112  CB        29.7870    9.3990   16.3310 C.3   121  LEU121      0.0270
    113  CG        28.4140    8.8470   16.6700 C.3   121  LEU121      0.0019
    114  CD1       28.2240    7.3600   16.4620 C.3   121  LEU121      0.0001
    115  CD2       28.0640    9.1630   18.1280 C.3   121  LEU121      0.0001
    116  N         32.7280   19.8720   25.5320 N.3   129  ILE129     -0.1245
    117  CA        32.3950   18.5320   26.0250 C.3   129  ILE129      0.1561
    118  C         33.1400   17.4160   25.2950 C.2   129  ILE129      0.2260
    119  O         32.7030   16.2440   25.5130 O.2   129  ILE129     -0.2867
    120  CB        30.8720   18.2940   26.2000 C.3   129  ILE129      0.0252
    121  CG1       30.0930   18.3830   24.8630 C.3   129  ILE129      0.0019
    122  CG2       30.3080   19.3160   27.2450 C.3   129  ILE129      0.0019
    123  CD1       28.6750   17.7470   24.8550 C.3   129  ILE129      0.0001
    124  N         25.8050   21.9440   24.7520 N.3   190  PHE190     -0.1241
    125  CA        24.7740   21.5700   23.7600 C.3   190  PHE190      0.1605
    126  C         24.2530   22.8150   23.0390 C.2   190  PHE190      0.2264
    127  O         24.4790   23.9120   23.5110 O.2   190  PHE190     -0.2867
    128  CB        23.5570   20.8700   24.4130 C.3   190  PHE190      0.0534
    129  CG        23.8770   19.5980   25.1770 C.ar  190  PHE190     -0.0203
    130  CD1       24.4820   18.5350   24.4980 C.ar  190  PHE190     -0.0042
    131  CD2       23.5870   19.5110   26.5460 C.ar  190  PHE190     -0.0042
    132  CE1       24.7990   17.3640   25.1870 C.ar  190  PHE190     -0.0003
    133  CE2       23.9150   18.3130   27.2350 C.ar  190  PHE190     -0.0003
    134  CZ        24.5120   17.2670   26.5570 C.ar  190  PHE190     -0.0000
    135  N         17.3960   20.5490   23.6080 N.3   211  ILE211     -0.1245
    136  CA        18.6240   20.6290   22.7510 C.3   211  ILE211      0.1561
    137  C         18.2860   20.1550   21.3370 C.2   211  ILE211      0.2260
    138  O         17.5250   19.1780   21.1300 O.2   211  ILE211     -0.2867
    139  CB        19.7690   19.8670   23.4260 C.3   211  ILE211      0.0252
    140  CG1       19.4390   18.3480   23.3490 C.3   211  ILE211      0.0019
    141  CG2       20.0720   20.3610   24.8630 C.3   211  ILE211      0.0019
    142  CD1       20.7170   17.4640   23.6170 C.3   211  ILE211      0.0001
    143  N         19.1750   18.0850   18.5100 N.3   213  ASP213     -0.1239
    144  CA        20.0850   16.9190   18.3760 C.3   213  ASP213      0.1674
    145  C         19.8380   16.0040   17.1800 C.2   213  ASP213      0.2266
    146  O         18.9150   15.1760   17.2170 O.2   213  ASP213     -0.2867
    147  CB        19.9060   16.1290   19.7100 C.3   213  ASP213      0.1410
    148  CG        20.9960   15.0860   19.8910 C.2   213  ASP213      0.3668
    149  OD1       21.8630   14.9170   19.0140 O.co2 213  ASP213     -0.2456
    150  OD2       21.0220   14.4030   20.9460 O.co2 213  ASP213     -0.2456
    151  N         21.6380   13.5950   16.4130 N.3   215  GLY215     -0.1210
    152  CA        21.9930   12.2270   16.8270 C.3   215  GLY215      0.1956
    153  C         20.9230   11.4840   17.6370 C.2   215  GLY215      0.2613
    154  O         21.1990   10.3210   18.0860 O.2   215  GLY215     -0.2717
    155  N         19.7510   12.0130   17.8300 N.am  216  THR216     -0.1938
    156  CA        18.6730   11.3310   18.5740 C.3   216  THR216      0.2028
    157  C         17.5450   11.0990   17.5560 C.2   216  THR216      0.2643
    158  O         17.1040   11.9960   16.8100 O.2   216  THR216     -0.2714
    159  CB        18.1160   12.1320   19.8250 C.3   216  THR216      0.1808
    160  OG1       19.1480   12.0800   20.8070 O.3   216  THR216     -0.2208
    161  CG2       16.8120   11.5770   20.4260 C.3   216  THR216      0.0379
    162  N         17.0560    9.8690   17.5230 N.am  217  THR217     -0.1936
    163  CA        15.9820    9.5700   16.5760 C.3   217  THR217      0.2028
    164  C         14.6290   10.2390   16.8530 C.2   217  THR217      0.2642
    165  O         14.0280   10.7090   15.8650 O.2   217  THR217     -0.2714
    166  CB        15.6960    7.9940   16.5500 C.3   217  THR217      0.1808
    167  OG1       16.9680    7.3280   16.4390 O.3   217  THR217     -0.2208
    168  CG2       14.7420    7.6400   15.3840 C.3   217  THR217      0.0379
    169  N         14.2180   10.2620   18.1140 N.am  218  LEU218     -0.1977
    170  CA        12.8640   10.7810   18.3840 C.3   218  LEU218      0.1596
    171  C         12.8070   12.1500   18.9970 C.2   218  LEU218      0.2287
    172  O         13.8670   12.7180   19.1090 O.2   218  LEU218     -0.2864
    173  CB        12.2110    9.7030   19.3100 C.3   218  LEU218      0.0297
    174  CG        12.2700    8.2630   18.7320 C.3   218  LEU218      0.0022
    175  CD1       11.7340    7.2670   19.7810 C.3   218  LEU218      0.0001
    176  CD2       11.4600    8.1630   17.4370 C.3   218  LEU218      0.0001
    177  N         12.0240   13.6620   22.3830 N.3   220  LEU220     -0.1245
    178  CA        11.8670   13.2080   23.7680 C.3   220  LEU220      0.1561
    179  C         11.4830   14.4120   24.6470 C.2   220  LEU220      0.2260
    180  O         12.2640   15.3560   24.7810 O.2   220  LEU220     -0.2867
    181  CB        13.1490   12.5170   24.2840 C.3   220  LEU220      0.0270
    182  CG        13.7030   11.4130   23.3810 C.3   220  LEU220      0.0019
    183  CD1       15.0290   10.8670   23.9040 C.3   220  LEU220      0.0001
    184  CD2       12.6150   10.3250   23.2220 C.3   220  LEU220      0.0001
    185  N          8.4810   -2.4930   21.7120 N.3   242  ALA242     -0.1231
    186  CA         8.6600   -1.4360   20.6960 C.3   242  ALA242      0.1694
    187  C          9.5010   -0.2790   21.1990 C.2   242  ALA242      0.2592
    188  O         10.2300    0.3820   20.4300 O.2   242  ALA242     -0.2718
    189  CB         7.2440   -1.0840   20.2290 C.3   242  ALA242      0.0304
    190  N          9.4800    0.0530   22.4730 N.am  243  GLY243     -0.1957
    191  CA        10.2620    1.1610   23.0440 C.3   243  GLY243      0.1869
    192  C          9.4560    2.3590   23.5090 C.2   243  GLY243      0.2309
    193  O          9.9680    3.4830   23.7530 O.2   243  GLY243     -0.2863
    194  N          6.4140    7.2920   13.4520 N.3   274  TYR274     -0.1241
    195  CA         7.8030    6.9010   13.1530 C.3   274  TYR274      0.1605
    196  C          7.9150    5.7540   12.1410 C.2   274  TYR274      0.2264
    197  O          8.7120    5.7690   11.1840 O.2   274  TYR274     -0.2867
    198  CB         8.5400    6.6350   14.4840 C.3   274  TYR274      0.0534
    199  CG         9.9140    6.0150   14.3110 C.ar  274  TYR274     -0.0201
    200  CD1       10.9740    6.7990   13.8480 C.ar  274  TYR274     -0.0009
    201  CD2       10.1240    4.6660   14.5790 C.ar  274  TYR274     -0.0009
    202  CE1       12.2660    6.2380   13.7040 C.ar  274  TYR274      0.0417
    203  CE2       11.4030    4.0950   14.4100 C.ar  274  TYR274      0.0417
    204  CZ        12.4510    4.8980   13.9880 C.ar  274  TYR274      0.1957
    205  OH        13.6740    4.3110   13.8350 O.3   274  TYR274     -0.2866
    206  N          5.2880    2.9300   16.0200 N.3   284  LEU284     -0.1245
    207  CA         5.8370    3.5950   17.2150 C.3   284  LEU284      0.1561
    208  C          5.6470    5.1130   17.0300 C.2   284  LEU284      0.2260
    209  O          5.8210    5.5710   15.9130 O.2   284  LEU284     -0.2867
    210  CB         7.3550    3.2140   17.2190 C.3   284  LEU284      0.0270
    211  CG         8.1310    3.8160   18.4000 C.3   284  LEU284      0.0019
    212  CD1        7.8070    3.2070   19.7230 C.3   284  LEU284      0.0001
    213  CD2        9.6450    3.6760   18.1220 C.3   284  LEU284      0.0001
    214  N         14.6680   16.6790   24.1840 N.3   297  ILE297     -0.1245
    215  CA        15.6570   16.3880   23.1130 C.3   297  ILE297      0.1561
    216  C         14.8740   16.5040   21.8090 C.2   297  ILE297      0.2260
    217  O         14.0120   15.6600   21.5510 O.2   297  ILE297     -0.2867
    218  CB        16.3510   15.0120   23.2650 C.3   297  ILE297      0.0252
    219  CG1       17.0040   14.9630   24.6860 C.3   297  ILE297      0.0019
    220  CG2       17.4140   14.8070   22.1080 C.3   297  ILE297      0.0019
    221  CD1       17.7890   13.6560   24.9670 C.3   297  ILE297      0.0001
@<TRIPOS>BOND
     1    13    12    2
     2    12    11    1
     3   197   196    2
     4     1     2    1
     5    19    20    1
     6    15    14    1
     7    15    16    1
     8    10    11    1
     9    10     3   am
    10    11    14    1
    11    20    21    1
    12    20    23    1
    13   196   195    1
    14    17    16   ar
    15    21    22    2
    16   106   105   ar
    17    16    18   ar
    18     2     3    1
    19     2     5    1
    20   102   103    1
    21   102   101    1
    22     3     4    2
    23     5     6    1
    24    23    24    1
    25   195   194    1
    26   195   198    1
    27    26    24   am
    28     8     7   ar
    29    24    25    2
    30   202   200   ar
    31   202   204   ar
    32   105   107   ar
    33   105   104    1
    34   205   204    1
    35   200   199   ar
    36   101   104    1
    37   101   100    1
    38   204   203   ar
    39   199   198    1
    40   199   201   ar
    41     6     7    1
    42   203   201   ar
    43     7     9   ar
    44   110   109    1
    45   110   111    2
    46   108   109    1
    47    27    28    1
    48   109   112    1
    49   168   166    1
    50   165   164    2
    51   209   208    2
    52    28    29    1
    53    28    31    1
    54   206   207    1
    55    92    91    2
    56   112   113    1
    57   151   152    1
    58   167   166    1
    59   114   113    1
    60   166   163    1
    61   163   164    1
    62   163   162    1
    63   113   115    1
    64    29    30    2
    65    31    32    1
    66   158   157    2
    67   152   153    1
    68   164   169   am
    69   208   207    1
    70   145   146    2
    71   145   144    1
    72   207   210    1
    73   210   211    1
    74    91    90    1
    75   176   174    1
    76   162   157   am
    77   157   156    1
    78   153   155   am
    79   153   154    2
    80   155   156    1
    81    90    93    1
    82    90    89    1
    83   169   170    1
    84   213   211    1
    85    32    34   ar
    86    32    33   ar
    87    96    98   ar
    88    96    94   ar
    89   144   143    1
    90   144   147    1
    91   170   171    1
    92   170   173    1
    93   211   212    1
    94    93    94    1
    95   156   159    1
    96    98    99   ar
    97   174   173    1
    98   174   175    1
    99   171   172    2
   100   149   148   ar
   101    94    95   ar
   102    35    36    1
   103    42    41    2
   104   147   148    1
   105   159   161    1
   106   159   160    1
   107   148   150   ar
   108    99    97   ar
   109    44    43    1
   110   189   186    1
   111    95    97   ar
   112   188   187    2
   113    41    40    1
   114   186   187    1
   115   186   185    1
   116    39    40    1
   117    39    37   am
   118    36    37    1
   119    70    69    1
   120   138   137    2
   121   187   190   am
   122    40    43    1
   123   137   136    1
   124    37    38    2
   125   217   216    2
   126    69    68   ar
   127    69    67   ar
   128    81    80   ar
   129   216   215    1
   130    68    66   ar
   131    67    65   ar
   132   220   218    1
   133   177   178    1
   134   190   191    1
   135    66    64   ar
   136    88    87    1
   137   136   139    1
   138   136   135    1
   139    65    64   ar
   140    80    82   ar
   141    80    79    1
   142    87    84    1
   143   126   127    2
   144   126   125    1
   145   191   192    1
   146   215   218    1
   147   215   214    1
   148    64    63    1
   149   184   182    1
   150   218   219    1
   151   140   139    1
   152   140   142    1
   153   182   183    1
   154   182   181    1
   155    51    49    1
   156   139   141    1
   157   192   193    2
   158    52    50    1
   159    79    76    1
   160   125   128    1
   161   125   124    1
   162   178   181    1
   163   178   179    1
   164    63    60    1
   165   128   129    1
   166    84    85    1
   167    84    83    1
   168   130   129   ar
   169   130   132   ar
   170    49    50    1
   171    49    46    1
   172   179   180    2
   173   219   221    1
   174   123   121    1
   175   121   120    1
   176    85    86    2
   177   129   131   ar
   178    76    75    1
   179    76    77    1
   180   132   134   ar
   181   118   119    2
   182   118   117    1
   183    75    73   am
   184    60    59    1
   185    60    61    1
   186   116   117    1
   187    78    77    2
   188    48    47    2
   189    71    61   am
   190    71    72    1
   191    59    55   am
   192    46    45    1
   193    46    47    1
   194   117   120    1
   195   120   122    1
   196    61    62    2
   197    47    53   am
   198    73    72    1
   199    73    74    2
   200   131   133   ar
   201   134   133   ar
   202    55    56    2
   203    55    54    1
   204    53    54    1
   205    54    57    1
   206    57    58    1
