@<TRIPOS>MOLECULE
tmp/1apzB01.pdb
 86 79 0 0 0
SMALL
GASTEIGER

@<TRIPOS>ATOM
      1  N         -0.7510   36.7130    4.6480 N.3     1  THR1       -0.1218
      2  CA         0.6620   36.2200    4.6600 C.3     1  THR1        0.1862
      3  C          0.7660   34.9220    5.4290 C.2     1  THR1        0.2287
      4  O         -0.0230   34.6500    6.3380 O.2     1  THR1       -0.2866
      5  CB         1.6240   37.2270    5.3600 C.3     1  THR1        0.1770
      6  OG1        1.4780   38.5110    4.7680 O.3     1  THR1       -0.2211
      7  CG2        3.0830   36.8080    5.2090 C.3     1  THR1        0.0375
      8  N          3.5210   36.7690    0.5450 N.3    19  THR19      -0.1218
      9  CA         2.2990   37.5420    0.6240 C.3    19  THR19       0.1862
     10  C          2.0330   38.3230   -0.6600 C.2    19  THR19       0.2287
     11  O          2.8230   38.2750   -1.6060 O.2    19  THR19      -0.2866
     12  CB         2.3830   38.5410    1.8140 C.3    19  THR19       0.1770
     13  OG1        1.1540   39.2640    1.9490 O.3    19  THR19      -0.2211
     14  CG2        3.5060   39.5250    1.6050 C.3    19  THR19       0.0375
     15  N          0.6320   41.5360   -0.0890 N.3    21  GLY21      -0.1210
     16  CA         0.4780   42.8510    0.5100 C.3    21  GLY21       0.1956
     17  C         -0.8390   43.0820    1.2090 C.2    21  GLY21       0.2611
     18  O         -1.4920   42.1390    1.6600 O.2    21  GLY21      -0.2717
     19  N         -1.2010   44.3490    1.3570 N.am   22  ILE22      -0.1979
     20  CA        -2.4670   44.7170    1.9700 C.3    22  ILE22       0.1595
     21  C         -3.3060   45.3000    0.8520 C.2    22  ILE22       0.2287
     22  O         -2.7760   45.9380   -0.0490 O.2    22  ILE22      -0.2864
     23  CB        -2.2880   45.7230    3.1040 C.3    22  ILE22       0.0276
     24  CG1       -1.4500   46.9180    2.6450 C.3    22  ILE22       0.0022
     25  CG2       -1.6440   45.0420    4.2820 C.3    22  ILE22       0.0022
     26  CD1       -1.1260   47.8880    3.7730 C.3    22  ILE22       0.0001
     27  N          4.2280   49.4740   -3.3670 N.3    29  ARG29      -0.1245
     28  CA         4.4080   49.3260   -1.9340 C.3    29  ARG29       0.1563
     29  C          4.9810   47.9520   -1.5480 C.2    29  ARG29       0.2260
     30  O          4.6160   46.9170   -2.1250 O.2    29  ARG29      -0.2867
     31  CB         3.0770   49.6130   -1.2220 C.3    29  ARG29       0.0307
     32  CG         3.1040   49.5280    0.2910 C.3    29  ARG29       0.0489
     33  CD         2.7190   48.1310    0.7620 C.3    29  ARG29       0.2205
     34  NE         2.6950   47.9710    2.2170 N.pl3  29  ARG29      -0.0865
     35  CZ         2.5430   46.7960    2.8300 C.cat  29  ARG29       0.5346
     36  NH1        2.3990   45.6740    2.1220 N.pl3  29  ARG29       0.1354
     37  NH2        2.5520   46.7370    4.1520 N.pl3  29  ARG29       0.1354
     38  N          6.0010   45.8360    2.1210 N.3    31  GLY31      -0.1210
     39  CA         5.9430   45.8590    3.5730 C.3    31  GLY31       0.1956
     40  C          7.0020   45.0590    4.3180 C.2    31  GLY31       0.2612
     41  O          8.0970   44.8290    3.8220 O.2    31  GLY31      -0.2717
     42  N          6.6430   44.6110    5.5120 N.am   32  ASP32      -0.1959
     43  CA         7.5240   43.8430    6.4000 C.3    32  ASP32       0.1840
     44  C          7.8900   42.4320    5.9590 C.2    32  ASP32       0.2622
     45  O          8.9820   41.9480    6.2510 O.2    32  ASP32      -0.2715
     46  CB         6.9020   43.7580    7.8080 C.3    32  ASP32       0.1450
     47  CG         5.5750   42.9730    7.8360 C.2    32  ASP32       0.3671
     48  OD1        4.7230   43.2050    6.9640 O.co2  32  ASP32      -0.2456
     49  OD2        5.3790   42.1320    8.7430 O.co2  32  ASP32      -0.2456
     50  N          6.9500   41.7640    5.2970 N.am   33  SER33      -0.1950
     51  CA         7.1270   40.3910    4.8410 C.3    33  SER33       0.1924
     52  C          8.4920   39.9930    4.2580 C.2    33  SER33       0.2314
     53  O          9.1140   39.0530    4.7590 O.2    33  SER33      -0.2863
     54  CB         5.9830   39.9860    3.8990 C.3    33  SER33       0.2116
     55  OG         4.7670   39.7940    4.6050 O.3    33  SER33      -0.2180
     56  N          6.1650   37.1460   11.4020 N.3    51  ALA51      -0.1231
     57  CA         5.1060   38.0940   11.7440 C.3    51  ALA51       0.1694
     58  C          4.0690   38.2800   10.6550 C.2    51  ALA51       0.2593
     59  O          4.3500   38.1660    9.4590 O.2    51  ALA51      -0.2718
     60  CB         5.7040   39.4350   12.1050 C.3    51  ALA51       0.0304
     61  N          2.8640   38.6120   11.0820 N.am   52  THR52      -0.1939
     62  CA         1.7610   38.8260   10.1740 C.3    52  THR52       0.2028
     63  C          0.9480   39.9670   10.7670 C.2    52  THR52       0.2642
     64  O          0.9360   40.1470   11.9800 O.2    52  THR52      -0.2714
     65  CB         0.9370   37.5260   10.0110 C.3    52  THR52       0.1808
     66  OG1       -0.0960   37.7190    9.0430 O.3    52  THR52      -0.2208
     67  CG2        0.3270   37.0940   11.3340 C.3    52  THR52       0.0379
     68  N          0.3560   40.7870    9.9080 N.am   53  GLY53      -0.1954
     69  CA        -0.4260   41.9270   10.3570 C.3    53  GLY53       0.1869
     70  C         -0.1020   43.1360    9.4950 C.2    53  GLY53       0.2309
     71  O          0.3650   42.9930    8.3630 O.2    53  GLY53      -0.2863
     72  N          1.9790   45.4630    7.9450 N.3    55  GLY55      -0.1225
     73  CA         3.3860   45.6480    7.6690 C.3    55  GLY55       0.1811
     74  C          3.9830   47.0400    7.7520 C.2    55  GLY55       0.2280
     75  O          5.2000   47.1630    7.9390 O.2    55  GLY55      -0.2866
     76  N         -2.6090   46.0950   14.2110 N.3    96  PHE96      -0.1241
     77  CA        -2.9630   44.7280   13.8690 C.3    96  PHE96       0.1605
     78  C         -1.6470   43.9990   13.6960 C.2    96  PHE96       0.2264
     79  O         -0.8540   44.3510   12.8370 O.2    96  PHE96      -0.2867
     80  CB        -3.7710   44.6950   12.5630 C.3    96  PHE96       0.0534
     81  CG        -4.0470   43.3070   12.0430 C.ar   96  PHE96      -0.0203
     82  CD1       -4.5530   42.3180   12.8780 C.ar   96  PHE96      -0.0042
     83  CD2       -3.7780   42.9830   10.7180 C.ar   96  PHE96      -0.0042
     84  CE1       -4.7820   41.0290   12.4000 C.ar   96  PHE96      -0.0003
     85  CE2       -4.0060   41.6950   10.2360 C.ar   96  PHE96      -0.0003
     86  CZ        -4.5080   40.7190   11.0810 C.ar   96  PHE96      -0.0000
@<TRIPOS>BOND
     1    27    28    1
     2    30    29    2
     3    28    29    1
     4    28    31    1
     5    11    10    2
     6    31    32    1
     7    10     9    1
     8    15    16    1
     9    22    21    2
    10    32    33    1
    11    16    17    1
    12     8     9    1
    13     9    12    1
    14    33    34    1
    15    21    20    1
    16    17    19   am
    17    17    18    2
    18    19    20    1
    19    14    12    1
    20    12    13    1
    21    20    23    1
    22    38    39    1
    23    36    35    1
    24    34    35    2
    25    24    23    1
    26    24    26    1
    27    35    37    1
    28    23    25    1
    29    39    40    1
    30    41    40    2
    31    54    55    1
    32    54    51    1
    33    52    53    2
    34    52    51    1
    35    40    42   am
    36     1     2    1
    37     2     5    1
    38     2     3    1
    39     6     5    1
    40    51    50    1
    41     7     5    1
    42    50    44   am
    43     3     4    2
    44    42    43    1
    45    44    45    2
    46    44    43    1
    47    43    46    1
    48    48    47   ar
    49    73    74    1
    50    73    72    1
    51    74    75    2
    52    46    47    1
    53    47    49   ar
    54    71    70    2
    55    66    65    1
    56    59    58    2
    57    70    69    1
    58    68    69    1
    59    68    63   am
    60    65    62    1
    61    65    67    1
    62    62    63    1
    63    62    61    1
    64    85    83   ar
    65    85    86   ar
    66    58    61   am
    67    58    57    1
    68    83    81   ar
    69    63    64    2
    70    86    84   ar
    71    56    57    1
    72    57    60    1
    73    81    80    1
    74    81    82   ar
    75    84    82   ar
    76    80    77    1
    77    79    78    2
    78    78    77    1
    79    77    76    1
