@<TRIPOS>MOLECULE
tmp/1aq7A00.pdb
 198 195 0 0 0
SMALL
GASTEIGER

@<TRIPOS>ATOM
      1  N         28.7970   19.9920    7.6000 N.3    40  HIS40      -0.1241
      2  CA        28.2470   19.4870    8.8530 C.3    40  HIS40       0.1621
      3  C         28.5510   17.9950    9.0440 C.2    40  HIS40       0.2264
      4  O         28.2740   17.4270   10.1050 O.2    40  HIS40      -0.2867
      5  CB        26.6990   19.8120    9.0010 C.3    40  HIS40       0.0745
      6  CG        25.7900   18.9100    8.2210 C.ar   40  HIS40       0.0817
      7  ND1       25.1070   19.3280    7.1010 N.ar   40  HIS40      -0.2268
      8  CD2       25.4030   17.6260    8.4360 C.ar   40  HIS40       0.1154
      9  CE1       24.3440   18.3480    6.6540 C.ar   40  HIS40       0.1986
     10  NE2       24.5050   17.3050    7.4490 N.ar   40  HIS40      -0.2212
     11  N         31.7890   28.3740    6.4680 N.3    76  TYR76      -0.1241
     12  CA        30.6750   27.5550    6.9450 C.3    76  TYR76       0.1605
     13  C         30.0190   28.0930    8.2220 C.2    76  TYR76       0.2264
     14  O         30.6990   28.3600    9.2130 O.2    76  TYR76      -0.2867
     15  CB        31.1370   26.1070    7.1820 C.3    76  TYR76       0.0534
     16  CG        30.0940   25.2430    7.8630 C.ar   76  TYR76      -0.0201
     17  CD1       28.7960   25.1720    7.3740 C.ar   76  TYR76      -0.0009
     18  CD2       30.4110   24.4930    8.9890 C.ar   76  TYR76      -0.0009
     19  CE1       27.8370   24.3720    7.9870 C.ar   76  TYR76       0.0417
     20  CE2       29.4620   23.6890    9.6120 C.ar   76  TYR76       0.0417
     21  CZ        28.1750   23.6290    9.1040 C.ar   76  TYR76       0.1957
     22  OH        27.2390   22.8070    9.6940 O.3    76  TYR76      -0.2866
     23  N         27.6920   27.0960   11.1410 N.3    78  SER78      -0.1202
     24  CA        27.1170   25.9370   11.8350 C.3    78  SER78       0.2020
     25  C         25.6560   26.0830   12.2610 C.2    78  SER78       0.2619
     26  O         24.9400   25.0840   12.4030 O.2    78  SER78      -0.2717
     27  CB        27.9890   25.5450   13.0870 C.3    78  SER78       0.2103
     28  OG        27.8170   26.4660   14.1540 O.3    78  SER78      -0.2182
     29  N         25.2210   27.3210   12.4770 N.am   79  ASN79      -0.1960
     30  CA        23.8430   27.5830   12.8920 C.3    79  ASN79       0.1819
     31  C         22.8540   27.4980   11.7290 C.2    79  ASN79       0.2622
     32  O         21.8860   26.7510   11.7920 O.2    79  ASN79      -0.2715
     33  CB        23.7400   28.9690   13.5620 C.3    79  ASN79       0.1195
     34  CG        24.6940   29.1200   14.7260 C.2    79  ASN79       0.2630
     35  OD1       24.5350   28.4710   15.7640 O.2    79  ASN79      -0.2716
     36  ND2       25.7130   29.9610   14.5520 N.am   79  ASN79      -0.0877
     37  N         23.0990   28.2710   10.6750 N.am   80  THR80      -0.1937
     38  CA        22.2300   28.3020    9.5000 C.3    80  THR80       0.2028
     39  C         22.5730   27.2290    8.4580 C.2    80  THR80       0.2642
     40  O         21.7280   26.8370    7.6470 O.2    80  THR80      -0.2714
     41  CB        22.3380   29.6700    8.7890 C.3    80  THR80       0.1808
     42  OG1       23.6750   29.8430    8.2990 O.3    80  THR80      -0.2208
     43  CG2       22.0010   30.8070    9.7560 C.3    80  THR80       0.0379
     44  N         23.8270   26.7910    8.4740 N.am   81  LEU81      -0.1977
     45  CA        24.3400   25.8050    7.5290 C.3    81  LEU81       0.1596
     46  C         24.6380   26.4590    6.1830 C.2    81  LEU81       0.2287
     47  O         24.6250   25.8040    5.1400 O.2    81  LEU81      -0.2864
     48  CB        23.3950   24.6150    7.3770 C.3    81  LEU81       0.0297
     49  CG        23.8050   23.4040    8.2370 C.3    81  LEU81       0.0022
     50  CD1       23.9810   23.7760    9.7160 C.3    81  LEU81       0.0001
     51  CD2       22.7530   22.3140    8.0780 C.3    81  LEU81       0.0001
     52  N         17.4450    8.2120    6.9740 N.3   123  ASN123     -0.1240
     53  CA        16.1810    7.7940    7.5710 C.3   123  ASN123      0.1653
     54  C         15.0930    7.7360    6.4880 C.2   123  ASN123      0.2266
     55  O         14.8890    8.7060    5.7450 O.2   123  ASN123     -0.2867
     56  CB        15.7880    8.8010    8.6910 C.3   123  ASN123      0.1155
     57  CG        14.4990    8.4250    9.3890 C.2   123  ASN123      0.2627
     58  OD1       13.9520    7.3440    9.1620 O.2   123  ASN123     -0.2716
     59  ND2       14.0030    9.3180   10.2460 N.am  123  ASN123     -0.0877
     60  N         11.8030    7.2440    7.0680 N.3   125  LYS125     -0.1231
     61  CA        10.4960    7.6630    7.5520 C.3   125  LYS125      0.1693
     62  C         10.4160    9.1010    8.0730 C.2   125  LYS125      0.2593
     63  O         11.3030    9.5830    8.7910 O.2   125  LYS125     -0.2718
     64  CB         9.9060    6.6670    8.5600 C.3   125  LYS125      0.0285
     65  CG        10.7870    6.1940    9.6790 C.3   125  LYS125      0.0035
     66  CD         9.7060    5.2290   10.2460 C.3   125  LYS125      0.0206
     67  CE        10.0950    4.3140   11.4000 C.3   125  LYS125      0.1093
     68  NZ        10.6020    5.0810   12.5730 N.3   125  LYS125     -0.1314
     69  N          9.3420    9.7760    7.6670 N.am  126  SER126     -0.1938
     70  CA         9.0620   11.1640    8.0140 C.3   126  SER126      0.2055
     71  C          8.7120   11.3580    9.4820 C.2   126  SER126      0.2644
     72  O          8.6090   12.4860    9.9690 O.2   126  SER126     -0.2714
     73  CB         7.9340   11.6570    7.1510 C.3   126  SER126      0.2130
     74  OG         6.9210   10.6650    7.0660 O.3   126  SER126     -0.2179
     75  N          8.4380   10.2540   10.1610 N.am  127  SER127     -0.1935
     76  CA         8.1280   10.2960   11.5780 C.3   127  SER127      0.2055
     77  C          8.8340    9.1000   12.1860 C.2   127  SER127      0.2643
     78  O          8.5730    7.9490   11.8110 O.2   127  SER127     -0.2714
     79  CB         6.6290   10.2100   11.8240 C.3   127  SER127      0.2130
     80  OG         6.3370   10.4530   13.1970 O.3   127  SER127     -0.2179
     81  N          9.7400    9.3730   13.1170 N.am  128  GLY128     -0.1954
     82  CA        10.4970    8.2930   13.7200 C.3   128  GLY128      0.1869
     83  C         11.7150    8.0540   12.8410 C.2   128  GLY128      0.2309
     84  O         12.1210    8.9480   12.0880 O.2   128  GLY128     -0.2863
     85  N         11.2280   13.0270    0.1900 N.3   171  ASP171     -0.1225
     86  CA        12.2930   13.9370    0.5930 C.3   171  ASP171      0.1805
     87  C         13.5310   13.1830    1.0890 C.2   171  ASP171      0.2598
     88  O         13.5250   11.9560    1.2100 O.2   171  ASP171     -0.2718
     89  CB        11.7240   14.8020    1.7810 C.3   171  ASP171      0.1424
     90  CG        12.4530   16.1140    1.9810 C.2   171  ASP171      0.3668
     91  OD1       13.4070   16.4080    1.2340 O.co2 171  ASP171     -0.2456
     92  OD2       12.0390   16.8660    2.8910 O.co2 171  ASP171     -0.2456
     93  N         14.6090   13.9250    1.3220 N.am  172  SER172     -0.1938
     94  CA        15.8170   13.3400    1.8860 C.3   172  SER172      0.2055
     95  C         15.6130   13.5180    3.3920 C.2   172  SER172      0.2643
     96  O         14.6900   14.2160    3.8210 O.2   172  SER172     -0.2714
     97  CB        17.1020   14.0770    1.4040 C.3   172  SER172      0.2130
     98  OG        17.0560   15.4700    1.6710 O.3   172  SER172     -0.2179
     99  N         16.4890   12.9340    4.1940 N.am  173  CYS173     -0.1953
    100  CA        16.3350   13.0280    5.6360 C.3   173  CYS173      0.1843
    101  C         17.6920   12.8580    6.3280 C.2   173  CYS173      0.2625
    102  O         18.7280   12.7770    5.6620 O.2   173  CYS173     -0.2714
    103  CB        15.3520   11.9350    6.0830 C.3   173  CYS173      0.0997
    104  SG        14.6400   12.1210    7.7260 S.3   173  CYS173     -0.0797
    105  N         17.6940   12.8450    7.6600 N.am  174  GLN174     -0.1977
    106  CA        18.9440   12.6580    8.3950 C.3   174  GLN174      0.1601
    107  C         19.5590   11.3220    7.9630 C.2   174  GLN174      0.2287
    108  O         18.8540   10.3160    7.8360 O.2   174  GLN174     -0.2864
    109  CB        18.7050   12.6750    9.9170 C.3   174  GLN174      0.0394
    110  CG        18.4620   14.0800   10.5330 C.3   174  GLN174      0.0908
    111  CD        17.2050   14.7590   10.0130 C.2   174  GLN174      0.2608
    112  OE1       16.1520   14.1340    9.8590 O.2   174  GLN174     -0.2717
    113  NE2       17.3100   16.0480    9.7470 N.am  174  GLN174     -0.0878
    114  N         22.7930   13.2880    4.8120 N.3   177  SER177     -0.1217
    115  CA        23.7620   14.3760    4.9530 C.3   177  SER177      0.1889
    116  C         24.9880   14.2520    4.0540 C.2   177  SER177      0.2288
    117  O         25.6640   13.2270    4.0590 O.2   177  SER177     -0.2866
    118  CB        24.2670   14.4450    6.3970 C.3   177  SER177      0.2089
    119  OG        23.2650   14.8760    7.2940 O.3   177  SER177     -0.2183
    120  N         23.1370   17.3690    0.2310 N.3   191  VAL191     -0.1231
    121  CA        22.1200   17.2250    1.2700 C.3   191  VAL191      0.1692
    122  C         22.5650   18.0500    2.4780 C.2   191  VAL191      0.2593
    123  O         23.5240   17.6930    3.1710 O.2   191  VAL191     -0.2718
    124  CB        21.9260   15.7370    1.7020 C.3   191  VAL191      0.0266
    125  CG1       20.8560   15.6390    2.8170 C.3   191  VAL191      0.0020
    126  CG2       21.5220   14.8650    0.4930 C.3   191  VAL191      0.0020
    127  N         21.8650   19.1540    2.7240 N.am  192  SER192     -0.1938
    128  CA        22.2270   20.0390    3.8230 C.3   192  SER192      0.2055
    129  C         21.2860   20.0400    5.0330 C.2   192  SER192      0.2643
    130  O         21.6560   19.5490    6.1070 O.2   192  SER192     -0.2714
    131  CB        22.4220   21.4590    3.3020 C.3   192  SER192      0.2130
    132  OG        22.8620   22.3190    4.3320 O.3   192  SER192     -0.2179
    133  N         20.0890   20.6050    4.8710 N.am  193  TRP193     -0.1959
    134  CA        19.1300   20.6750    5.9720 C.3   193  TRP193      0.1771
    135  C         17.6640   20.7390    5.5340 C.2   193  TRP193      0.2620
    136  O         17.3410   20.6300    4.3420 O.2   193  TRP193     -0.2715
    137  CB        19.4390   21.9030    6.8730 C.3   193  TRP193      0.0590
    138  CG        19.3510   23.2220    6.1490 C.ar  193  TRP193      0.0006
    139  CD1       20.2990   23.7700    5.3320 C.ar  193  TRP193      0.0946
    140  CD2       18.2590   24.1600    6.1840 C.ar  193  TRP193      0.0152
    141  NE1       19.8700   24.9860    4.8610 N.ar  193  TRP193     -0.2442
    142  CE2       18.6260   25.2520    5.3640 C.ar  193  TRP193      0.0810
    143  CE3       17.0140   24.1850    6.8250 C.ar  193  TRP193      0.0012
    144  CZ2       17.7890   26.3580    5.1700 C.ar  193  TRP193      0.0191
    145  CZ3       16.1810   25.2920    6.6290 C.ar  193  TRP193      0.0001
    146  CH2       16.5770   26.3600    5.8090 C.ar  193  TRP193      0.0015
    147  N         16.7890   20.9120    6.5250 N.am  194  GLY194     -0.1940
    148  CA        15.3640   21.0060    6.2780 C.3   194  GLY194      0.2014
    149  C         14.5830   20.8960    7.5760 C.2   194  GLY194      0.2640
    150  O         15.1280   20.4930    8.6060 O.2   194  GLY194     -0.2714
    151  N         13.3160   21.2950    7.5370 N.am  195  SER195     -0.1935
    152  CA        12.4470   21.2270    8.7100 C.3   195  SER195      0.2055
    153  C         11.7200   19.8810    8.6890 C.2   195  SER195      0.2644
    154  O         10.7690   19.6750    7.9210 O.2   195  SER195     -0.2714
    155  CB        11.4500   22.3900    8.7030 C.3   195  SER195      0.2130
    156  OG        10.6710   22.3930    9.8830 O.3   195  SER195     -0.2179
    157  N         12.1860   18.9650    9.5350 N.am  196  GLY196     -0.1939
    158  CA        11.6050   17.6390    9.5730 C.3   196  GLY196      0.2014
    159  C         12.0630   16.9250    8.3140 C.2   196  GLY196      0.2639
    160  O         13.1290   17.2390    7.7770 O.2   196  GLY196     -0.2714
    161  N         11.2450   15.9950    7.8270 N.am  197  CYS197     -0.1967
    162  CA        11.5500   15.2390    6.6160 C.3   197  CYS197      0.1712
    163  C         10.2440   14.8800    5.9290 C.2   197  CYS197      0.2296
    164  O          9.3460   14.3110    6.5500 O.2   197  CYS197     -0.2864
    165  CB        12.3230   13.9080    6.9560 C.3   197  CYS197      0.0983
    166  SG        13.9070   14.1060    7.8240 S.3   197  CYS197     -0.0798
    167  N          7.8960   21.8670    3.2770 N.3   202  LYS202     -0.1231
    168  CA         9.1900   21.8250    3.9470 C.3   202  LYS202      0.1678
    169  C         10.1040   20.8400    3.2190 C.2   202  LYS202      0.2434
    170  O         10.4520   19.7760    3.7400 O.2   202  LYS202     -0.2733
    171  CB         9.0110   21.4310    5.4330 C.3   202  LYS202      0.0284
    172  CG         8.2270   22.4800    6.2420 C.3   202  LYS202      0.0035
    173  CD         9.0890   23.7590    6.3270 C.3   202  LYS202      0.0206
    174  CE         8.4510   25.0960    6.7770 C.3   202  LYS202      0.1093
    175  NZ         7.5340   25.6800    5.7380 N.3   202  LYS202     -0.1314
    176  N         10.4960   21.1920    1.9820 N.am  203  PRO203     -0.2718
    177  CA        11.3670   20.3920    1.1150 C.3   203  PRO203      0.1535
    178  C         12.8170   20.4510    1.5780 C.2   203  PRO203      0.2599
    179  O         13.1630   21.2350    2.4680 O.2   203  PRO203     -0.2715
    180  CB        11.1980   21.0610   -0.2180 C.3   203  PRO203      0.0310
    181  CG        11.1020   22.5220    0.1670 C.3   203  PRO203      0.0237
    182  CD        10.1390   22.4680    1.3310 C.3   203  PRO203      0.0939
    183  N         13.6590   19.6240    0.9640 N.am  204  GLY204     -0.1955
    184  CA        15.0640   19.6050    1.3210 C.3   204  GLY204      0.1869
    185  C         15.7780   20.8530    0.8290 C.2   204  GLY204      0.2309
    186  O         15.4920   21.3480   -0.2630 O.2   204  GLY204     -0.2863
    187  N         19.3430   22.3950   -0.1730 N.3   206  TYR206     -0.1241
    188  CA        20.6430   21.8960   -0.5900 C.3   206  TYR206      0.1605
    189  C         21.6750   22.9640   -0.8900 C.2   206  TYR206      0.2264
    190  O         21.3430   24.0880   -1.2760 O.2   206  TYR206     -0.2867
    191  CB        20.4710   20.9500   -1.8240 C.3   206  TYR206      0.0534
    192  CG        19.4510   19.8570   -1.5840 C.ar  206  TYR206     -0.0201
    193  CD1       19.8130   18.6720   -0.9560 C.ar  206  TYR206     -0.0009
    194  CD2       18.1110   20.0400   -1.9160 C.ar  206  TYR206     -0.0009
    195  CE1       18.8680   17.7010   -0.6540 C.ar  206  TYR206      0.0417
    196  CE2       17.1590   19.0750   -1.6200 C.ar  206  TYR206      0.0417
    197  CZ        17.5430   17.9090   -0.9840 C.ar  206  TYR206      0.1957
    198  OH        16.5990   16.9710   -0.6400 O.3   206  TYR206     -0.2866
@<TRIPOS>BOND
     1   194   196   ar
     2   194   192   ar
     3   191   192    1
     4   191   188    1
     5   196   197   ar
     6   192   193   ar
     7   190   189    2
     8   197   195   ar
     9   197   198    1
    10   193   195   ar
    11   189   188    1
    12   188   187    1
    13   186   185    2
    14   180   181    1
    15   180   177    1
    16   181   182    1
    17    85    86    1
    18   120   121    1
    19   126   124    1
    20    86    87    1
    21    86    89    1
    22   185   184    1
    23   183   184    1
    24   183   178   am
    25    87    88    2
    26    87    93   am
    27   177   178    1
    28   177   176    1
    29    91    90   ar
    30   121   124    1
    31   121   122    1
    32    93    94    1
    33   182   176    1
    34    97    98    1
    35    97    94    1
    36   178   179    2
    37   124   125    1
    38    89    90    1
    39    94    95    1
    40    90    92   ar
    41   176   169   am
    42   122   127   am
    43   122   123    2
    44   127   128    1
    45   169   170    2
    46   169   168    1
    47   167   168    1
    48   131   128    1
    49   131   132    1
    50    95    96    2
    51    95    99   am
    52   128   129    1
    53   168   171    1
    54   116   117    2
    55   116   115    1
    56    99   100    1
    57   136   135    2
    58   114   115    1
    59   141   139   ar
    60   141   142   ar
    61   133   129   am
    62   133   134    1
    63   115   118    1
    64   129   130    2
    65    47    46    2
    66   144   142   ar
    67   144   146   ar
    68   139   138   ar
    69   142   140   ar
    70   171   172    1
    71   135   134    1
    72   135   147   am
    73   100   103    1
    74   100   101    1
    75   102   101    2
    76   175   174    1
    77    55    54    2
    78   146   145   ar
    79   163   164    2
    80   163   162    1
    81   134   137    1
    82   103   104    1
    83   138   140   ar
    84   138   137    1
    85    46    45    1
    86   140   143   ar
    87   172   173    1
    88   148   147    1
    89   148   149    1
    90   173   174    1
    91   101   105   am
    92   118   119    1
    93    11    12    1
    94    54    53    1
    95   162   165    1
    96   162   161    1
    97   145   143   ar
    98     9     7   ar
    99     9    10   ar
   100    12    15    1
   101    12    13    1
   102   165   166    1
   103    52    53    1
   104    74    73    1
   105    60    61    1
   106     7     6   ar
   107    73    70    1
   108    15    16    1
   109    17    16   ar
   110    17    19   ar
   111    48    45    1
   112    48    49    1
   113    10     8   ar
   114    45    44    1
   115   151   149   am
   116   151   152    1
   117    61    62    1
   118    61    64    1
   119    53    56    1
   120   149   150    2
   121     1     2    1
   122    40    39    2
   123   105   106    1
   124    69    70    1
   125    69    62   am
   126   104   166    1
   127   160   159    2
   128   161   159   am
   129   108   107    2
   130    16    18   ar
   131   154   153    2
   132   107   106    1
   133    19    21   ar
   134    70    71    1
   135    62    63    2
   136    51    49    1
   137     6     8   ar
   138     6     5    1
   139    13    14    2
   140    49    50    1
   141    42    41    1
   142   159   158    1
   143   106   109    1
   144    39    44   am
   145    39    38    1
   146    64    65    1
   147   153   152    1
   148   153   157   am
   149    56    57    1
   150   155   152    1
   151   155   156    1
   152    41    38    1
   153    41    43    1
   154     2     5    1
   155     2     3    1
   156    18    20   ar
   157     3     4    2
   158    21    20   ar
   159    21    22    1
   160    58    57    2
   161    57    59   am
   162    71    72    2
   163    71    75   am
   164    38    37    1
   165   157   158    1
   166    65    66    1
   167   113   111   am
   168   112   111    2
   169   109   110    1
   170   111   110    1
   171    75    76    1
   172    66    67    1
   173    37    31   am
   174    23    24    1
   175    67    68    1
   176    76    79    1
   177    76    77    1
   178    31    32    2
   179    31    30    1
   180    78    77    2
   181    79    80    1
   182    24    25    1
   183    24    27    1
   184    84    83    2
   185    77    81   am
   186    25    26    2
   187    25    29   am
   188    29    30    1
   189    83    82    1
   190    30    33    1
   191    27    28    1
   192    81    82    1
   193    33    34    1
   194    36    34   am
   195    34    35    2
