@<TRIPOS>MOLECULE
tmp/1aqcC00.pdb
 187 182 0 0 0
SMALL
GASTEIGER

@<TRIPOS>ATOM
      1  N         46.5110   17.6020   37.9620 N.3    17  ARG17      -0.1245
      2  CA        45.5320   17.5870   39.0500 C.3    17  ARG17       0.1563
      3  C         45.9180   18.5620   40.1700 C.2    17  ARG17       0.2260
      4  O         45.0650   19.1620   40.8320 O.2    17  ARG17      -0.2867
      5  CB        45.4310   16.1660   39.5940 C.3    17  ARG17       0.0307
      6  CG        44.2970   15.9490   40.5340 C.3    17  ARG17       0.0489
      7  CD        43.5300   14.7090   40.1430 C.3    17  ARG17       0.2205
      8  NE        42.7350   14.9070   38.9310 N.pl3  17  ARG17      -0.0865
      9  CZ        41.5020   14.4380   38.7760 C.cat  17  ARG17       0.5346
     10  NH1       40.9230   13.7570   39.7480 N.pl3  17  ARG17       0.1354
     11  NH2       40.8710   14.5960   37.6310 N.pl3  17  ARG17       0.1354
     12  N         34.0270    8.6230   49.3100 N.3    58  LEU58      -0.1231
     13  CA        35.2140    7.7610   49.2800 C.3    58  LEU58       0.1693
     14  C         35.7000    7.3500   47.8910 C.2    58  LEU58       0.2592
     15  O         36.5620    8.0120   47.3250 O.2    58  LEU58      -0.2718
     16  CB        34.9850    6.5150   50.1590 C.3    58  LEU58       0.0284
     17  CG        36.0450    5.9890   51.1540 C.3    58  LEU58       0.0019
     18  CD1       36.8430    4.8410   50.5940 C.3    58  LEU58       0.0001
     19  CD2       36.9480    7.1090   51.6120 C.3    58  LEU58       0.0001
     20  N         35.1320    6.2780   47.3460 N.am   59  ARG59      -0.1966
     21  CA        35.5040    5.7570   46.0290 C.3    59  ARG59       0.1729
     22  C         35.3580    6.7580   44.8830 C.2    59  ARG59       0.2617
     23  O         36.0660    6.6600   43.8750 O.2    59  ARG59      -0.2715
     24  CB        34.7020    4.4870   45.7300 C.3    59  ARG59       0.0348
     25  CG        33.2060    4.6310   46.0160 C.3    59  ARG59       0.0492
     26  CD        32.3910    3.3570   45.7190 C.3    59  ARG59       0.2205
     27  NE        30.9470    3.6370   45.6540 N.pl3  59  ARG59      -0.0865
     28  CZ        30.1080    3.4950   46.6820 C.cat  59  ARG59       0.5346
     29  NH1       30.5730    3.0710   47.8560 N.pl3  59  ARG59       0.1354
     30  NH2       28.8110    3.7810   46.5520 N.pl3  59  ARG59       0.1354
     31  N         34.4450    7.7210   45.0450 N.am   60  THR60      -0.1937
     32  CA        34.1920    8.7590   44.0420 C.3    60  THR60       0.2028
     33  C         35.0710   10.0220   44.2290 C.2    60  THR60       0.2642
     34  O         34.9970   10.9820   43.4560 O.2    60  THR60      -0.2714
     35  CB        32.6940    9.1420   44.0360 C.3    60  THR60       0.1808
     36  OG1       32.3040    9.6240   45.3280 O.3    60  THR60      -0.2208
     37  CG2       31.8460    7.9380   43.6900 C.3    60  THR60       0.0379
     38  N         35.9070   10.0110   45.2590 N.am   61  ILE61      -0.1963
     39  CA        36.7830   11.1310   45.5310 C.3    61  ILE61       0.1727
     40  C         38.1260   10.6830   45.0180 C.2    61  ILE61       0.2617
     41  O         38.5140    9.5360   45.2040 O.2    61  ILE61      -0.2715
     42  CB        36.8780   11.4410   47.0370 C.3    61  ILE61       0.0290
     43  CG1       35.4880   11.6410   47.6420 C.3    61  ILE61       0.0022
     44  CG2       37.6540   12.7150   47.2450 C.3    61  ILE61       0.0023
     45  CD1       35.5250   12.0470   49.0810 C.3    61  ILE61       0.0001
     46  N         38.8200   11.5820   44.3400 N.am   62  SER62      -0.1936
     47  CA        40.1180   11.2800   43.7760 C.3    62  SER62       0.2055
     48  C         41.2420   12.0850   44.3960 C.2    62  SER62       0.2643
     49  O         42.2670   11.5270   44.7650 O.2    62  SER62      -0.2714
     50  CB        40.0860   11.5420   42.2740 C.3    62  SER62       0.2130
     51  OG        39.5800   12.8380   42.0080 O.3    62  SER62      -0.2179
     52  N         41.0250   13.3890   44.5500 N.am   63  TYR63      -0.1959
     53  CA        42.0570   14.2780   45.0660 C.3    63  TYR63       0.1771
     54  C         41.6840   15.1740   46.2520 C.2    63  TYR63       0.2619
     55  O         40.5430   15.6430   46.3830 O.2    63  TYR63      -0.2715
     56  CB        42.5500   15.1600   43.9170 C.3    63  TYR63       0.0574
     57  CG        43.9850   15.5970   44.0260 C.ar   63  TYR63      -0.0198
     58  CD1       45.0260   14.6880   43.8190 C.ar   63  TYR63      -0.0009
     59  CD2       44.3080   16.9300   44.2890 C.ar   63  TYR63      -0.0009
     60  CE1       46.3480   15.0890   43.8670 C.ar   63  TYR63       0.0417
     61  CE2       45.6360   17.3480   44.3390 C.ar   63  TYR63       0.0417
     62  CZ        46.6520   16.4220   44.1240 C.ar   63  TYR63       0.1957
     63  OH        47.9750   16.8230   44.1510 O.3    63  TYR63      -0.2866
     64  N         42.6680   15.3820   47.1220 N.am   64  ILE64      -0.1963
     65  CA        42.5350   16.2600   48.2700 C.3    64  ILE64       0.1727
     66  C         43.8470   17.0130   48.2910 C.2    64  ILE64       0.2616
     67  O         44.8960   16.4550   47.9810 O.2    64  ILE64      -0.2715
     68  CB        42.3500   15.5070   49.5960 C.3    64  ILE64       0.0290
     69  CG1       41.9580   16.4980   50.7010 C.3    64  ILE64       0.0022
     70  CG2       43.6340   14.8050   49.9870 C.3    64  ILE64       0.0023
     71  CD1       40.6770   17.2690   50.4250 C.3    64  ILE64       0.0001
     72  N         43.7780   18.2990   48.5850 N.am   65  ALA65      -0.1963
     73  CA        44.9690   19.1230   48.6280 C.3    65  ALA65       0.1728
     74  C         44.8710   20.1420   49.7370 C.2    65  ALA65       0.2616
     75  O         43.7840   20.6140   50.0630 O.2    65  ALA65      -0.2715
     76  CB        45.1430   19.8360   47.3020 C.3    65  ALA65       0.0334
     77  N         46.0090   20.4390   50.3480 N.am   66  ASP66      -0.1971
     78  CA        46.0620   21.4510   51.3740 C.3    66  ASP66       0.1709
     79  C         46.9350   22.5420   50.7670 C.2    66  ASP66       0.2293
     80  O         48.0860   22.3190   50.4320 O.2    66  ASP66      -0.2864
     81  CB        46.6130   20.8970   52.6930 C.3    66  ASP66       0.1436
     82  CG        48.0380   20.3670   52.5750 C.2    66  ASP66       0.3671
     83  OD1       48.2120   19.1850   52.1790 O.co2  66  ASP66      -0.2456
     84  OD2       48.9820   21.1320   52.9040 O.co2  66  ASP66      -0.2456
     85  N         34.0730   13.0380   41.8370 N.3    75  ARG75      -0.1245
     86  CA        33.3410   12.8270   40.6020 C.3    75  ARG75       0.1563
     87  C         31.8310   13.0520   40.6650 C.2    75  ARG75       0.2260
     88  O         31.2440   13.2780   41.7290 O.2    75  ARG75      -0.2867
     89  CB        33.6260   11.4240   40.0800 C.3    75  ARG75       0.0307
     90  CG        35.1060   11.0710   39.9230 C.3    75  ARG75       0.0489
     91  CD        35.6210   11.3530   38.5170 C.3    75  ARG75       0.2205
     92  NE        35.6560   12.7800   38.2100 N.pl3  75  ARG75      -0.0865
     93  CZ        36.5870   13.6170   38.6430 C.cat  75  ARG75       0.5346
     94  NH1       37.5750   13.1740   39.4040 N.pl3  75  ARG75       0.1354
     95  NH2       36.5510   14.8940   38.2940 N.pl3  75  ARG75       0.1354
     96  N         35.9580   14.3670   34.3840 N.3    78  TYR78      -0.1241
     97  CA        34.9000   13.3500   34.0940 C.3    78  TYR78       0.1605
     98  C         33.5900   13.7020   34.8070 C.2    78  TYR78       0.2264
     99  O         32.8940   12.8170   35.3030 O.2    78  TYR78      -0.2867
    100  CB        35.3690   11.9690   34.5520 C.3    78  TYR78       0.0534
    101  CG        36.7140   11.5720   33.9500 C.ar   78  TYR78      -0.0201
    102  CD1       36.8050   11.2550   32.6100 C.ar   78  TYR78      -0.0009
    103  CD2       37.8440   11.5560   34.7460 C.ar   78  TYR78      -0.0009
    104  CE1       38.0280   10.9260   32.0580 C.ar   78  TYR78       0.0417
    105  CE2       39.0770   11.2240   34.1930 C.ar   78  TYR78       0.0417
    106  CZ        39.1520   10.9110   32.8530 C.ar   78  TYR78       0.1957
    107  OH        40.3700   10.5780   32.2790 O.3    78  TYR78      -0.2866
    108  N         46.0500   21.0400   56.6040 N.3    90  GLN90      -0.1245
    109  CA        47.0750   20.0180   56.3830 C.3    90  GLN90       0.1566
    110  C         46.7050   18.7330   57.0970 C.2    90  GLN90       0.2260
    111  O         46.9380   17.6430   56.5750 O.2    90  GLN90      -0.2867
    112  CB        48.4570   20.4840   56.8830 C.3    90  GLN90       0.0367
    113  CG        49.6190   19.6080   56.3720 C.3    90  GLN90       0.0905
    114  CD        50.9270   19.7310   57.1660 C.2    90  GLN90       0.2608
    115  OE1       50.9420   19.6460   58.3910 O.2    90  GLN90      -0.2717
    116  NE2       52.0360   19.8490   56.4520 N.am   90  GLN90      -0.0878
    117  N         43.7820   17.1300   55.1330 N.3    93  ALA93      -0.1231
    118  CA        44.2400   16.4350   53.9400 C.3    93  ALA93       0.1694
    119  C         45.0070   15.1450   54.2990 C.2    93  ALA93       0.2591
    120  O         44.7880   14.0950   53.6680 O.2    93  ALA93      -0.2718
    121  CB        45.0870   17.3500   53.0910 C.3    93  ALA93       0.0304
    122  N         45.8560   15.2010   55.3360 N.am   94  GLN94      -0.1979
    123  CA        46.6430   14.0360   55.7750 C.3    94  GLN94       0.1601
    124  C         45.6890   12.9310   56.2000 C.2    94  GLN94       0.2287
    125  O         45.8990   11.7640   55.8690 O.2    94  GLN94      -0.2864
    126  CB        47.5720   14.3830   56.9500 C.3    94  GLN94       0.0394
    127  CG        48.8240   15.1920   56.6010 C.3    94  GLN94       0.0908
    128  CD        49.4950   15.8180   57.8350 C.2    94  GLN94       0.2608
    129  OE1       49.0520   15.6400   58.9640 O.2    94  GLN94      -0.2717
    130  NE2       50.5500   16.5670   57.6140 N.am   94  GLN94      -0.0878
    131  N         43.9640   11.3190   53.2640 N.3    97  GLY97      -0.1225
    132  CA        44.9290   10.4690   52.6070 C.3    97  GLY97       0.1811
    133  C         45.0580    9.1280   53.2960 C.2    97  GLY97       0.2280
    134  O         45.3140    8.1180   52.6330 O.2    97  GLY97      -0.2866
    135  N         42.2250    7.0550   52.3870 N.3   100  PHE100     -0.1227
    136  CA        42.5020    6.5310   51.0480 C.3   100  PHE100      0.1736
    137  C         43.3120    5.2450   51.1300 C.2   100  PHE100      0.2596
    138  O         42.9830    4.2340   50.4930 O.2   100  PHE100     -0.2718
    139  CB        43.2880    7.5710   50.2260 C.3   100  PHE100      0.0547
    140  CG        42.4540    8.7240   49.7410 C.ar  100  PHE100     -0.0202
    141  CD1       41.0760    8.6990   49.8500 C.ar  100  PHE100     -0.0042
    142  CD2       43.0450    9.8170   49.1320 C.ar  100  PHE100     -0.0042
    143  CE1       40.3160    9.7330   49.3640 C.ar  100  PHE100     -0.0003
    144  CE2       42.2730   10.8590   48.6410 C.ar  100  PHE100     -0.0003
    145  CZ        40.9150   10.8110   48.7600 C.ar  100  PHE100     -0.0000
    146  N         44.3630    5.3160   51.9440 N.am  101  SER101     -0.1952
    147  CA        45.3060    4.2310   52.1710 C.3   101  SER101      0.1924
    148  C         44.6430    3.0110   52.7460 C.2   101  SER101      0.2314
    149  O         44.9090    1.8970   52.2960 O.2   101  SER101     -0.2863
    150  CB        46.4220    4.7090   53.0910 C.3   101  SER101      0.2116
    151  OG        46.9770    5.9330   52.6020 O.3   101  SER101     -0.2180
    152  N         41.1350    2.3670   52.8870 N.3   103  ALA103     -0.1231
    153  CA        40.0860    1.8980   51.9900 C.3   103  ALA103      0.1694
    154  C         40.6800    1.1910   50.7470 C.2   103  ALA103      0.2592
    155  O         40.0890    0.2570   50.1980 O.2   103  ALA103     -0.2718
    156  CB        39.1770    3.0670   51.5920 C.3   103  ALA103      0.0304
    157  N         41.8800    1.5940   50.3470 N.am  104  TYR104     -0.1976
    158  CA        42.5300    0.9900   49.1890 C.3   104  TYR104      0.1639
    159  C         42.9740   -0.4090   49.5710 C.2   104  TYR104      0.2290
    160  O         42.9270   -1.3280   48.7590 O.2   104  TYR104     -0.2864
    161  CB        43.7190    1.8460   48.7380 C.3   104  TYR104      0.0560
    162  CG        44.5240    1.2840   47.5840 C.ar  104  TYR104     -0.0198
    163  CD1       43.9150    0.9160   46.3860 C.ar  104  TYR104     -0.0009
    164  CD2       45.9120    1.1350   47.6910 C.ar  104  TYR104     -0.0009
    165  CE1       44.6740    0.4100   45.3180 C.ar  104  TYR104      0.0417
    166  CE2       46.6690    0.6380   46.6380 C.ar  104  TYR104      0.0417
    167  CZ        46.0450    0.2800   45.4580 C.ar  104  TYR104      0.1957
    168  OH        46.8060   -0.1830   44.4200 O.3   104  TYR104     -0.2866
    169  N         40.1610   -2.3520   49.4550 N.3   107  PHE107     -0.1227
    170  CA        39.7950   -2.5370   48.0710 C.3   107  PHE107      0.1736
    171  C         40.5150   -3.7830   47.5030 C.2   107  PHE107      0.2595
    172  O         39.8880   -4.7170   46.9830 O.2   107  PHE107     -0.2718
    173  CB        40.1500   -1.2900   47.2780 C.3   107  PHE107      0.0547
    174  CG        39.8660   -1.4190   45.8310 C.ar  107  PHE107     -0.0202
    175  CD1       38.5630   -1.4420   45.3820 C.ar  107  PHE107     -0.0042
    176  CD2       40.9070   -1.5840   44.9190 C.ar  107  PHE107     -0.0042
    177  CE1       38.2950   -1.6320   44.0440 C.ar  107  PHE107     -0.0003
    178  CE2       40.6470   -1.7770   43.5760 C.ar  107  PHE107     -0.0003
    179  CZ        39.3320   -1.8000   43.1370 C.ar  107  PHE107     -0.0000
    180  N         41.8320   -3.8030   47.6260 N.am  108  LEU108     -0.1980
    181  CA        42.6120   -4.9270   47.1670 C.3   108  LEU108      0.1596
    182  C         42.0960   -6.2370   47.7950 C.2   108  LEU108      0.2287
    183  O         41.9070   -7.2360   47.0920 O.2   108  LEU108     -0.2864
    184  CB        44.0920   -4.7020   47.5120 C.3   108  LEU108      0.0297
    185  CG        44.7700   -3.4240   46.9740 C.3   108  LEU108      0.0022
    186  CD1       46.2740   -3.4870   47.1790 C.3   108  LEU108      0.0001
    187  CD2       44.4890   -3.2320   45.4980 C.3   108  LEU108      0.0001
@<TRIPOS>BOND
     1   104   102   ar
     2   104   106   ar
     3   107   106    1
     4   102   101   ar
     5   106   105   ar
     6   101   100    1
     7   101   103   ar
     8    97    96    1
     9    97   100    1
    10    97    98    1
    11   105   103   ar
    12    98    99    2
    13    11     9    1
    14     1     2    1
    15    92    91    1
    16    92    93    2
    17    95    93    1
    18    91    90    1
    19    93    94    1
    20     9     8    2
    21     9    10    1
    22     8     7    1
    23     2     5    1
    24     2     3    1
    25     5     6    1
    26    90    89    1
    27    89    86    1
    28     7     6    1
    29     3     4    2
    30    86    87    1
    31    86    85    1
    32    87    88    2
    33    51    50    1
    34    50    47    1
    35   179   178   ar
    36   179   177   ar
    37    34    33    2
    38   178   176   ar
    39    37    35    1
    40    47    46    1
    41    47    48    1
    42    58    60   ar
    43    58    57   ar
    44    60    62   ar
    45    23    22    2
    46    56    57    1
    47    56    53    1
    48    57    59   ar
    49    35    32    1
    50    35    36    1
    51    32    33    1
    52    32    31    1
    53   177   175   ar
    54    62    63    1
    55    62    61   ar
    56    33    38   am
    57    59    61   ar
    58    46    40   am
    59    48    52   am
    60    48    49    2
    61   168   167    1
    62    52    53    1
    63    22    31   am
    64    22    21    1
    65   176   174   ar
    66    40    41    2
    67    40    39    1
    68    53    54    1
    69    38    39    1
    70   165   167   ar
    71   165   163   ar
    72   175   174   ar
    73   167   166   ar
    74   187   185    1
    75    39    42    1
    76    27    26    1
    77    27    28    2
    78    26    25    1
    79    24    25    1
    80    24    21    1
    81   174   173    1
    82    21    20    1
    83    54    55    2
    84    54    64   am
    85   163   162   ar
    86    30    28    1
    87   166   164   ar
    88    28    29    1
    89   185   186    1
    90   185   184    1
    91   172   171    2
    92    42    44    1
    93    42    43    1
    94   183   182    2
    95    64    65    1
    96   181   184    1
    97   181   180    1
    98   181   182    1
    99   173   170    1
   100    76    73    1
   101    15    14    2
   102    20    14   am
   103   171   180   am
   104   171   170    1
   105   162   164   ar
   106   162   161    1
   107    43    45    1
   108    14    13    1
   109    67    66    2
   110   170   169    1
   111    65    66    1
   112    65    68    1
   113    66    72   am
   114    72    73    1
   115    73    74    1
   116   144   145   ar
   117   144   142   ar
   118   161   158    1
   119   160   159    2
   120   145   143   ar
   121   142   140   ar
   122   158   159    1
   123   158   157    1
   124    13    12    1
   125    13    16    1
   126   143   141   ar
   127    68    70    1
   128    68    69    1
   129    74    75    2
   130    74    77   am
   131   140   141   ar
   132   140   139    1
   133    16    17    1
   134   155   154    2
   135   139   136    1
   136   157   154   am
   137    77    78    1
   138    71    69    1
   139    80    79    2
   140   138   137    2
   141    18    17    1
   142   154   153    1
   143    79    78    1
   144   136   137    1
   145   136   135    1
   146   137   146   am
   147    17    19    1
   148    78    81    1
   149   156   153    1
   150   146   147    1
   151   153   152    1
   152   147   148    1
   153   147   150    1
   154    83    82   ar
   155   149   148    2
   156    82    81    1
   157    82    84   ar
   158   151   150    1
   159   132   131    1
   160   132   133    1
   161   134   133    2
   162   121   118    1
   163   120   119    2
   164   118   119    1
   165   118   117    1
   166   119   122   am
   167   122   123    1
   168   123   124    1
   169   123   126    1
   170   125   124    2
   171   113   112    1
   172   113   114    1
   173   109   108    1
   174   109   112    1
   175   109   110    1
   176   116   114   am
   177   111   110    2
   178   127   126    1
   179   127   128    1
   180   114   115    2
   181   130   128   am
   182   128   129    2
