@<TRIPOS>MOLECULE
tmp/1aqcA00.pdb
 218 213 0 0 0
SMALL
GASTEIGER

@<TRIPOS>ATOM
      1  N         41.8420   -3.5340   66.5140 N.3    22  ASP22      -0.1225
      2  CA        42.1940   -4.9420   66.4130 C.3    22  ASP22       0.1805
      3  C         43.4660   -5.0450   67.2600 C.2    22  ASP22       0.2598
      4  O         43.9880   -4.0150   67.6970 O.2    22  ASP22      -0.2718
      5  CB        42.4550   -5.3290   64.9440 C.3    22  ASP22       0.1424
      6  CG        41.1930   -5.2290   64.0550 C.2    22  ASP22       0.3668
      7  OD1       40.0640   -4.9990   64.5590 O.co2  22  ASP22      -0.2456
      8  OD2       41.3420   -5.3900   62.8180 O.co2  22  ASP22      -0.2456
      9  N         43.9580   -6.2550   67.5210 N.am   23  LYS23      -0.1966
     10  CA        45.1720   -6.3770   68.3320 C.3    23  LYS23       0.1728
     11  C         46.3510   -5.6240   67.7250 C.2    23  LYS23       0.2617
     12  O         46.8250   -4.6410   68.3090 O.2    23  LYS23      -0.2715
     13  CB        45.5530   -7.8410   68.6050 C.3    23  LYS23       0.0311
     14  CG        46.9550   -7.9980   69.2280 C.3    23  LYS23       0.0038
     15  CD        47.0950   -9.1740   70.2050 C.3    23  LYS23       0.0206
     16  CE        46.4970   -8.8430   71.5610 C.3    23  LYS23       0.1093
     17  NZ        46.7490   -7.4250   71.9300 N.3    23  LYS23      -0.1314
     18  N         46.8090   -6.0690   66.5550 N.am   24  THR24      -0.1937
     19  CA        47.9430   -5.4310   65.8760 C.3    24  THR24       0.2013
     20  C         47.5090   -4.9510   64.4790 C.2    24  THR24       0.2484
     21  O         47.5470   -5.7120   63.4970 O.2    24  THR24      -0.2729
     22  CB        49.1390   -6.4000   65.7960 C.3    24  THR24       0.1807
     23  OG1       48.7240   -7.6220   65.1990 O.3    24  THR24      -0.2208
     24  CG2       49.7250   -6.6730   67.1690 C.3    24  THR24       0.0379
     25  N         47.0100   -3.7070   64.3950 N.am   25  PRO25      -0.2726
     26  CA        46.5500   -3.1260   63.1310 C.3    25  PRO25       0.1402
     27  C         47.6880   -2.6960   62.1940 C.2    25  PRO25       0.2269
     28  O         48.8690   -2.6780   62.5740 O.2    25  PRO25      -0.2865
     29  CB        45.7100   -1.9130   63.5930 C.3    25  PRO25       0.0296
     30  CG        45.3390   -2.2400   64.9980 C.3    25  PRO25       0.0237
     31  CD        46.6150   -2.8390   65.5160 C.3    25  PRO25       0.0939
     32  N         49.8170   -0.0300   60.0700 N.3    27  LYS27      -0.1245
     33  CA        50.2740    1.3140   60.3840 C.3    27  LYS27       0.1561
     34  C         49.3290    2.4400   59.9360 C.2    27  LYS27       0.2260
     35  O         49.1020    3.3960   60.6760 O.2    27  LYS27      -0.2867
     36  CB        51.6820    1.5340   59.8180 C.3    27  LYS27       0.0271
     37  CG        51.7370    2.0020   58.3680 C.3    27  LYS27       0.0035
     38  CD        53.0340    2.7850   58.1200 C.3    27  LYS27       0.0206
     39  CE        52.8790    3.7790   56.9740 C.3    27  LYS27       0.1093
     40  NZ        51.7830    4.7690   57.2300 N.3    27  LYS27      -0.1314
     41  N         46.4410    2.5470   62.1080 N.3    30  ARG30      -0.1245
     42  CA        46.9370    3.0290   63.3890 C.3    30  ARG30       0.1563
     43  C         47.1820    4.5520   63.3670 C.2    30  ARG30       0.2260
     44  O         47.2180    5.1990   64.4100 O.2    30  ARG30      -0.2867
     45  CB        48.2050    2.2740   63.7750 C.3    30  ARG30       0.0307
     46  CG        48.5240    2.3420   65.2520 C.3    30  ARG30       0.0489
     47  CD        48.5280    0.9940   65.9050 C.3    30  ARG30       0.2205
     48  NE        47.4990    0.8970   66.9300 N.pl3  30  ARG30      -0.0865
     49  CZ        47.3860   -0.1150   67.7900 C.cat  30  ARG30       0.5346
     50  NH1       48.2510   -1.1200   67.7590 N.pl3  30  ARG30       0.1354
     51  NH2       46.3780   -0.1460   68.6610 N.pl3  30  ARG30       0.1354
     52  N         56.0220    0.3990   79.8000 N.3    70  LEU70      -0.1231
     53  CA        56.1690    0.4260   78.3660 C.3    70  LEU70       0.1693
     54  C         55.3730   -0.7150   77.7280 C.2    70  LEU70       0.2592
     55  O         54.9100   -0.6010   76.5910 O.2    70  LEU70      -0.2718
     56  CB        57.6510    0.3600   77.9710 C.3    70  LEU70       0.0284
     57  CG        57.9390    0.8830   76.5480 C.3    70  LEU70       0.0019
     58  CD1       57.9390    2.4080   76.4980 C.3    70  LEU70       0.0001
     59  CD2       59.2580    0.3630   76.0860 C.3    70  LEU70       0.0001
     60  N         55.1720   -1.7920   78.4810 N.am   71  ARG71      -0.1966
     61  CA        54.4210   -2.9430   77.9840 C.3    71  ARG71       0.1729
     62  C         52.9920   -2.5880   77.5840 C.2    71  ARG71       0.2617
     63  O         52.4530   -3.1090   76.5970 O.2    71  ARG71      -0.2715
     64  CB        54.3900   -4.0580   79.0320 C.3    71  ARG71       0.0348
     65  CG        55.7490   -4.6780   79.3010 C.3    71  ARG71       0.0492
     66  CD        55.6550   -5.8540   80.2530 C.3    71  ARG71       0.2205
     67  NE        55.3050   -5.4650   81.6170 N.pl3  71  ARG71      -0.0865
     68  CZ        56.1930   -5.2410   82.5770 C.cat  71  ARG71       0.5346
     69  NH1       57.4920   -5.3620   82.3150 N.pl3  71  ARG71       0.1354
     70  NH2       55.7820   -4.9420   83.8050 N.pl3  71  ARG71       0.1354
     71  N         52.3830   -1.7000   78.3590 N.am   72  THR72      -0.1937
     72  CA        51.0150   -1.2970   78.1050 C.3    72  THR72       0.2028
     73  C         50.8750   -0.2820   76.9800 C.2    72  THR72       0.2642
     74  O         49.7590    0.0670   76.6280 O.2    72  THR72      -0.2714
     75  CB        50.3600   -0.7180   79.3810 C.3    72  THR72       0.1808
     76  OG1       51.0090    0.5100   79.7340 O.3    72  THR72      -0.2208
     77  CG2       50.4470   -1.7140   80.5470 C.3    72  THR72       0.0379
     78  N         51.9920    0.2160   76.4460 N.am   73  ILE73      -0.1963
     79  CA        51.9670    1.2130   75.3690 C.3    73  ILE73       0.1727
     80  C         52.1250    0.4680   74.0550 C.2    73  ILE73       0.2617
     81  O         53.1600   -0.1480   73.8150 O.2    73  ILE73      -0.2715
     82  CB        53.1400    2.2290   75.4720 C.3    73  ILE73       0.0290
     83  CG1       53.2550    2.8070   76.8910 C.3    73  ILE73       0.0022
     84  CG2       52.9600    3.3390   74.4310 C.3    73  ILE73       0.0023
     85  CD1       51.9940    3.4890   77.4050 C.3    73  ILE73       0.0001
     86  N         51.1110    0.5490   73.2000 N.am   74  SER74      -0.1936
     87  CA        51.1160   -0.1340   71.9090 C.3    74  SER74       0.2055
     88  C         51.6310    0.6690   70.6980 C.2    74  SER74       0.2643
     89  O         52.2670    0.1040   69.8190 O.2    74  SER74      -0.2714
     90  CB        49.7090   -0.6630   71.6290 C.3    74  SER74       0.2130
     91  OG        48.7540    0.3380   71.9070 O.3    74  SER74      -0.2179
     92  N         51.3460    1.9720   70.6530 N.am   75  TYR75      -0.1959
     93  CA        51.7470    2.8320   69.5390 C.3    75  TYR75       0.1771
     94  C         51.9380    4.2650   70.0540 C.2    75  TYR75       0.2619
     95  O         51.4080    4.6290   71.1020 O.2    75  TYR75      -0.2715
     96  CB        50.6390    2.7820   68.4630 C.3    75  TYR75       0.0574
     97  CG        50.8200    3.6770   67.2560 C.ar   75  TYR75      -0.0198
     98  CD1       51.5530    3.2540   66.1640 C.ar   75  TYR75      -0.0009
     99  CD2       50.1840    4.9260   67.1780 C.ar   75  TYR75      -0.0009
    100  CE1       51.6500    4.0410   65.0090 C.ar   75  TYR75       0.0417
    101  CE2       50.2700    5.7280   66.0230 C.ar   75  TYR75       0.0417
    102  CZ        51.0040    5.2690   64.9490 C.ar   75  TYR75       0.1957
    103  OH        51.0960    6.0080   63.8080 O.3    75  TYR75      -0.2866
    104  N         52.7160    5.0610   69.3360 N.am   76  ILE76      -0.1963
    105  CA        52.9570    6.4470   69.7090 C.3    76  ILE76       0.1727
    106  C         53.1620    7.1580   68.3860 C.2    76  ILE76       0.2616
    107  O         53.7840    6.6110   67.4750 O.2    76  ILE76      -0.2715
    108  CB        54.2490    6.6090   70.6140 C.3    76  ILE76       0.0290
    109  CG1       54.2040    7.9150   71.4160 C.3    76  ILE76       0.0022
    110  CG2       55.5310    6.6030   69.7710 C.3    76  ILE76       0.0023
    111  CD1       54.4820    9.1590   70.6130 C.3    76  ILE76       0.0001
    112  N         52.6170    8.3610   68.2640 N.am   77  ALA77      -0.1963
    113  CA        52.7650    9.1250   67.0410 C.3    77  ALA77       0.1728
    114  C         52.8560   10.6050   67.3130 C.2    77  ALA77       0.2616
    115  O         52.3220   11.0890   68.2990 O.2    77  ALA77      -0.2715
    116  CB        51.5850    8.8360   66.0970 C.3    77  ALA77       0.0334
    117  N         53.5780   11.3070   66.4520 N.am   78  ASP78      -0.1971
    118  CA        53.6930   12.7560   66.5260 C.3    78  ASP78       0.1709
    119  C         52.9150   13.2900   65.3190 C.2    78  ASP78       0.2293
    120  O         53.1410   12.8530   64.1930 O.2    78  ASP78      -0.2864
    121  CB        55.1540   13.1790   66.4630 C.3    78  ASP78       0.1436
    122  CG        55.8600   12.6430   65.2570 C.2    78  ASP78       0.3671
    123  OD1       56.3130   11.4930   65.2900 O.co2  78  ASP78      -0.2456
    124  OD2       55.9680   13.3760   64.2670 O.co2  78  ASP78      -0.2456
    125  N         46.8810    0.0500   76.4970 N.3    87  ARG87      -0.1245
    126  CA        45.9280   -1.0570   76.6730 C.3    87  ARG87       0.1563
    127  C         45.2250   -1.0190   78.0630 C.2    87  ARG87       0.2260
    128  O         45.5610   -0.1700   78.8860 O.2    87  ARG87      -0.2867
    129  CB        46.7380   -2.3590   76.5450 C.3    87  ARG87       0.0307
    130  CG        45.9520   -3.6880   76.5400 C.3    87  ARG87       0.0489
    131  CD        46.8730   -4.9070   76.7330 C.3    87  ARG87       0.2205
    132  NE        47.6070   -4.8260   77.9920 N.pl3  87  ARG87      -0.0865
    133  CZ        48.9270   -4.8920   78.0880 C.cat  87  ARG87       0.5346
    134  NH1       49.6620   -5.0350   76.9950 N.pl3  87  ARG87       0.1354
    135  NH2       49.5130   -4.8160   79.2770 N.pl3  87  ARG87       0.1354
    136  N         39.4510   -4.6800   71.0420 N.3    90  TYR90      -0.1241
    137  CA        39.9640   -4.2970   72.3980 C.3    90  TYR90       0.1605
    138  C         39.8940   -2.7670   72.5780 C.2    90  TYR90       0.2264
    139  O         40.0050   -2.0170   71.6020 O.2    90  TYR90      -0.2867
    140  CB        41.4180   -4.7860   72.5930 C.3    90  TYR90       0.0534
    141  CG        41.6510   -6.2700   72.3270 C.ar   90  TYR90      -0.0201
    142  CD1       40.7920   -7.2470   72.8460 C.ar   90  TYR90      -0.0009
    143  CD2       42.7430   -6.6940   71.5590 C.ar   90  TYR90      -0.0009
    144  CE1       41.0240   -8.6140   72.6030 C.ar   90  TYR90       0.0417
    145  CE2       42.9800   -8.0510   71.3110 C.ar   90  TYR90       0.0417
    146  CZ        42.1270   -9.0100   71.8320 C.ar   90  TYR90       0.1957
    147  OH        42.3920  -10.3530   71.6030 O.3    90  TYR90      -0.2866
    148  N         58.5880   11.0510   70.1290 N.3   105  ALA105     -0.1231
    149  CA        58.2820    9.8290   69.3820 C.3   105  ALA105      0.1694
    150  C         59.5410    9.0240   69.1050 C.2   105  ALA105      0.2591
    151  O         59.5840    7.8090   69.3000 O.2   105  ALA105     -0.2718
    152  CB        57.6000   10.1680   68.0890 C.3   105  ALA105      0.0304
    153  N         60.5540    9.6970   68.5910 N.am  106  GLN106     -0.1979
    154  CA        61.8130    9.0480   68.3240 C.3   106  GLN106      0.1601
    155  C         62.1850    8.2900   69.5940 C.2   106  GLN106      0.2287
    156  O         62.3380    7.0670   69.5800 O.2   106  GLN106     -0.2864
    157  CB        62.8910   10.1050   68.0440 C.3   106  GLN106      0.0394
    158  CG        62.6940   10.9200   66.7770 C.3   106  GLN106      0.0908
    159  CD        62.8970   10.1090   65.5260 C.2   106  GLN106      0.2608
    160  OE1       62.0590   10.1140   64.6160 O.2   106  GLN106     -0.2717
    161  NE2       64.0140    9.3890   65.4730 N.am  106  GLN106     -0.0878
    162  N         60.0840    5.2570   70.3850 N.3   109  GLY109     -0.1225
    163  CA        60.3280    4.1740   69.4420 C.3   109  GLY109      0.1811
    164  C         61.6330    3.4550   69.7420 C.2   109  GLY109      0.2280
    165  O         61.7650    2.2400   69.5740 O.2   109  GLY109     -0.2866
    166  N         61.1170    1.3810   72.6110 N.3   112  PHE112     -0.1227
    167  CA        60.4350    0.1970   72.0940 C.3   112  PHE112      0.1736
    168  C         61.4670   -0.8260   71.6440 C.2   112  PHE112      0.2596
    169  O         61.4990   -1.9510   72.1520 O.2   112  PHE112     -0.2718
    170  CB        59.5400    0.5760   70.9130 C.3   112  PHE112      0.0547
    171  CG        58.2640    1.2750   71.3000 C.ar  112  PHE112     -0.0202
    172  CD1       57.8860    1.3860   72.6300 C.ar  112  PHE112     -0.0042
    173  CD2       57.4110    1.7740   70.3130 C.ar  112  PHE112     -0.0042
    174  CE1       56.6800    1.9800   72.9650 C.ar  112  PHE112     -0.0003
    175  CE2       56.2070    2.3680   70.6390 C.ar  112  PHE112     -0.0003
    176  CZ        55.8360    2.4750   71.9530 C.ar  112  PHE112     -0.0000
    177  N         62.3260   -0.4100   70.7160 N.am  113  SER113     -0.1952
    178  CA        63.3920   -1.2610   70.1850 C.3   113  SER113      0.1924
    179  C         64.1870   -1.9500   71.3040 C.2   113  SER113      0.2314
    180  O         64.2800   -3.1920   71.3510 O.2   113  SER113     -0.2863
    181  CB        64.3520   -0.4330   69.3270 C.3   113  SER113      0.2116
    182  OG        63.6810    0.2140   68.2620 O.3   113  SER113     -0.2180
    183  N         63.4990   -2.4850   74.4730 N.3   115  ALA115     -0.1231
    184  CA        62.6690   -3.4220   75.2270 C.3   115  ALA115      0.1694
    185  C         62.2500   -4.6870   74.4740 C.2   115  ALA115      0.2592
    186  O         62.1280   -5.7630   75.0790 O.2   115  ALA115     -0.2718
    187  CB        61.4530   -2.7100   75.7880 C.3   115  ALA115      0.0304
    188  N         62.0550   -4.5800   73.1620 N.am  116  TYR116     -0.1976
    189  CA        61.6390   -5.7350   72.3490 C.3   116  TYR116      0.1639
    190  C         62.7720   -6.7230   72.0400 C.2   116  TYR116      0.2290
    191  O         62.5360   -7.9370   71.9300 O.2   116  TYR116     -0.2864
    192  CB        60.9560   -5.2660   71.0570 C.3   116  TYR116      0.0560
    193  CG        60.6950   -6.3570   70.0530 C.ar  116  TYR116     -0.0198
    194  CD1       59.7320   -7.3260   70.2890 C.ar  116  TYR116     -0.0009
    195  CD2       61.3940   -6.3970   68.8420 C.ar  116  TYR116     -0.0009
    196  CE1       59.4570   -8.3160   69.3400 C.ar  116  TYR116      0.0417
    197  CE2       61.1320   -7.3840   67.8770 C.ar  116  TYR116      0.0417
    198  CZ        60.1570   -8.3400   68.1350 C.ar  116  TYR116      0.1957
    199  OH        59.8570   -9.2990   67.1860 O.3   116  TYR116     -0.2866
    200  N         63.6170   -8.6780   75.2010 N.3   119  PHE119     -0.1227
    201  CA        62.5710   -9.6970   75.2390 C.3   119  PHE119      0.1736
    202  C         62.8860  -10.8990   74.3350 C.2   119  PHE119      0.2595
    203  O         62.6410  -12.0620   74.6970 O.2   119  PHE119     -0.2718
    204  CB        61.2620   -9.0420   74.7920 C.3   119  PHE119      0.0547
    205  CG        60.0580   -9.9160   74.9320 C.ar  119  PHE119     -0.0202
    206  CD1       59.5490  -10.2160   76.2000 C.ar  119  PHE119     -0.0042
    207  CD2       59.4310  -10.4470   73.8050 C.ar  119  PHE119     -0.0042
    208  CE1       58.4370  -11.0310   76.3470 C.ar  119  PHE119     -0.0003
    209  CE2       58.3210  -11.2610   73.9440 C.ar  119  PHE119     -0.0003
    210  CZ        57.8240  -11.5550   75.2170 C.ar  119  PHE119     -0.0000
    211  N         63.4300  -10.6160   73.1590 N.am  120  LEU120     -0.1980
    212  CA        63.7630  -11.6640   72.2160 C.3   120  LEU120      0.1596
    213  C         64.9150  -12.5490   72.6910 C.2   120  LEU120      0.2287
    214  O         64.7740  -13.7830   72.7530 O.2   120  LEU120     -0.2864
    215  CB        64.0870  -11.0640   70.8460 C.3   120  LEU120      0.0297
    216  CG        62.9710  -10.3040   70.1230 C.3   120  LEU120      0.0022
    217  CD1       63.4680   -9.8340   68.7640 C.3   120  LEU120      0.0001
    218  CD2       61.7650  -11.2080   69.9680 C.3   120  LEU120      0.0001
@<TRIPOS>BOND
     1    39    40    1
     2    39    38    1
     3    38    37    1
     4    37    36    1
     5    36    33    1
     6    34    33    1
     7    34    35    2
     8    32    33    1
     9    41    42    1
    10    27    28    2
    11    27    26    1
    12     8     6   ar
    13    26    29    1
    14    26    25    1
    15    43    42    1
    16    43    44    2
    17    42    45    1
    18    21    20    2
    19    29    30    1
    20    45    46    1
    21   103   102    1
    22     6     7   ar
    23     6     5    1
    24   120   119    2
    25   124   122   ar
    26    25    20   am
    27    25    31    1
    28    20    19    1
    29   160   159    2
    30     5     2    1
    31   102   100   ar
    32   102   101   ar
    33    30    31    1
    34   100    98   ar
    35    23    22    1
    36    46    47    1
    37   122   123   ar
    38   122   121    1
    39   119   118    1
    40   161   159   am
    41   159   158    1
    42    22    19    1
    43    22    24    1
    44    19    18    1
    45    47    48    1
    46   101    99   ar
    47   116   113    1
    48    98    97   ar
    49     2     1    1
    50     2     3    1
    51   117   118    1
    52   117   114   am
    53   121   118    1
    54    18    11   am
    55   158   157    1
    56    48    49    2
    57   113   114    1
    58   113   112    1
    59    99    97   ar
    60   199   198    1
    61    97    96    1
    62     3     9   am
    63     3     4    2
    64   114   115    2
    65   107   106    2
    66     9    10    1
    67    11    12    2
    68    11    10    1
    69    50    49    1
    70    49    51    1
    71   197   198   ar
    72   197   195   ar
    73   157   154    1
    74   152   149    1
    75   198   196   ar
    76   182   181    1
    77   112   106   am
    78   154   153    1
    79   154   155    1
    80    10    13    1
    81   106   105    1
    82    96    93    1
    83   153   150   am
    84    13    14    1
    85   217   216    1
    86   195   193   ar
    87   150   151    2
    88   150   149    1
    89    14    15    1
    90   181   178    1
    91   104   105    1
    92   104    94   am
    93   196   194   ar
    94   149   148    1
    95   163   164    1
    96   163   162    1
    97    93    94    1
    98    93    92    1
    99   165   164    2
   100   156   155    2
   101   105   108    1
   102   110   108    1
   103    89    88    2
   104   218   216    1
   105   193   194   ar
   106   193   192    1
   107    94    95    2
   108   216   215    1
   109   178   177    1
   110   178   179    1
   111    15    16    1
   112   173   175   ar
   113   173   171   ar
   114   111   109    1
   115   108   109    1
   116   175   176   ar
   117    92    88   am
   118    88    87    1
   119   177   168   am
   120   215   212    1
   121   170   171    1
   122   170   167    1
   123   136   137    1
   124   192   189    1
   125   171   172   ar
   126   179   180    2
   127   145   143   ar
   128   145   146   ar
   129   143   141   ar
   130    16    17    1
   131   139   138    2
   132   147   146    1
   133    90    91    1
   134    90    87    1
   135   168   167    1
   136   168   169    2
   137   146   144   ar
   138    87    86    1
   139   191   190    2
   140   176   174   ar
   141   190   189    1
   142   167   166    1
   143   212   213    1
   144   212   211    1
   145   141   140    1
   146   141   142   ar
   147   189   188    1
   148   137   138    1
   149   137   140    1
   150   144   142   ar
   151   172   174   ar
   152   213   214    2
   153   211   202   am
   154   188   185   am
   155    86    80   am
   156   207   209   ar
   157   207   205   ar
   158    81    80    2
   159   209   210   ar
   160    80    79    1
   161   202   203    2
   162   202   201    1
   163    84    82    1
   164   183   184    1
   165   185   186    2
   166   185   184    1
   167   204   205    1
   168   204   201    1
   169   205   206   ar
   170   200   201    1
   171   210   208   ar
   172   184   187    1
   173    79    82    1
   174    79    78    1
   175    82    83    1
   176    59    57    1
   177   206   208   ar
   178    78    73   am
   179   125   126    1
   180    58    57    1
   181   130   129    1
   182   130   131    1
   183   129   126    1
   184    57    56    1
   185    55    54    2
   186    63    62    2
   187    74    73    2
   188   126   127    1
   189   131   132    1
   190    83    85    1
   191    73    72    1
   192   134   133    1
   193    62    61    1
   194    62    71   am
   195    54    53    1
   196    54    60   am
   197    56    53    1
   198    61    60    1
   199    61    64    1
   200   132   133    2
   201   127   128    2
   202   133   135    1
   203    72    71    1
   204    72    75    1
   205    53    52    1
   206    64    65    1
   207    65    66    1
   208    75    76    1
   209    75    77    1
   210    66    67    1
   211    67    68    2
   212    69    68    1
   213    68    70    1
