@<TRIPOS>MOLECULE
tmp/1aqfG00.pdb
 115 102 0 0 0
SMALL
GASTEIGER

@<TRIPOS>ATOM
      1  N         49.0100   63.8870  159.9710 N.3    61  ARG61      -0.1245
      2  CA        47.6980   63.6000  159.4330 C.3    61  ARG61       0.1563
      3  C         46.8540   62.7980  160.3440 C.2    61  ARG61       0.2260
      4  O         47.2270   61.6930  160.7200 O.2    61  ARG61      -0.2867
      5  CB        47.7560   62.9180  158.0700 C.3    61  ARG61       0.0307
      6  CG        46.4360   62.8660  157.2900 C.3    61  ARG61       0.0489
      7  CD        46.3390   61.5010  156.6220 C.3    61  ARG61       0.2205
      8  NE        45.1170   61.2380  155.8720 N.pl3  61  ARG61      -0.0865
      9  CZ        44.8400   60.0190  155.4210 C.cat  61  ARG61       0.5346
     10  NH1       45.6510   58.9820  155.6580 N.pl3  61  ARG61       0.1354
     11  NH2       43.7300   59.8130  154.7240 N.pl3  61  ARG61       0.1354
     12  N         43.5120   60.8660  160.5210 N.3    63  ASN63      -0.1240
     13  CA        42.4210   60.2240  159.7960 C.3    63  ASN63       0.1653
     14  C         41.2370   59.9390  160.6900 C.2    63  ASN63       0.2266
     15  O         41.2940   59.0470  161.5430 O.2    63  ASN63      -0.2867
     16  CB        42.8360   58.9060  159.0740 C.3    63  ASN63       0.1155
     17  CG        41.8540   58.4840  157.9670 C.2    63  ASN63       0.2627
     18  OD1       40.7080   59.0010  157.8820 O.2    63  ASN63      -0.2716
     19  ND2       42.2970   57.5570  157.1100 N.am   63  ASN63      -0.0877
     20  N         38.3640   58.7740  159.6780 N.3    65  SER65      -0.1217
     21  CA        37.4660   57.7340  159.1710 C.3    65  SER65       0.1889
     22  C         37.4290   56.6340  160.2140 C.2    65  SER65       0.2288
     23  O         36.7020   55.6550  160.0810 O.2    65  SER65      -0.2866
     24  CB        37.9180   57.0950  157.8470 C.3    65  SER65       0.2089
     25  OG        37.7770   57.9780  156.7470 O.3    65  SER65      -0.2183
     26  N         41.7480   64.8350  158.6480 N.3   101  ASP101     -0.1225
     27  CA        41.2190   64.1980  157.4580 C.3   101  ASP101      0.1805
     28  C         39.7850   63.6450  157.6090 C.2   101  ASP101      0.2598
     29  O         39.5330   62.4960  157.9530 O.2   101  ASP101     -0.2718
     30  CB        42.2210   63.1620  156.9370 C.3   101  ASP101      0.1424
     31  CG        42.0180   62.8570  155.5050 C.2   101  ASP101      0.3668
     32  OD1       40.9130   63.4120  155.0540 O.co2 101  ASP101     -0.2456
     33  OD2       42.7800   62.1390  154.8790 O.co2 101  ASP101     -0.2456
     34  N         38.8340   64.4970  157.3260 N.am  102  THR102     -0.1953
     35  CA        37.4260   64.2100  157.3890 C.3   102  THR102      0.1897
     36  C         37.0580   62.9190  156.7170 C.2   102  THR102      0.2313
     37  O         37.5450   62.6040  155.6340 O.2   102  THR102     -0.2863
     38  CB        36.6410   65.3330  156.6850 C.3   102  THR102      0.1794
     39  OG1       35.8910   66.0490  157.6310 O.3   102  THR102     -0.2208
     40  CG2       35.7240   64.7850  155.5870 C.3   102  THR102      0.0378
     41  N         37.0870   65.3880  152.7430 N.3   231  SER231     -0.1217
     42  CA        36.7790   64.2850  151.8900 C.3   231  SER231      0.1889
     43  C         35.7630   64.6150  150.8310 C.2   231  SER231      0.2288
     44  O         35.0010   65.5650  150.9570 O.2   231  SER231     -0.2866
     45  CB        36.3720   63.0650  152.6900 C.3   231  SER231      0.2089
     46  OG        37.5030   62.2370  152.9170 O.3   231  SER231     -0.2183
     47  N         39.4740   67.4260  148.6770 N.3   258  LYS258     -0.1245
     48  CA        40.0810   66.1700  148.2830 C.3   258  LYS258      0.1561
     49  C         39.3850   65.6310  147.0420 C.2   258  LYS258      0.2260
     50  O         38.1790   65.3760  147.0910 O.2   258  LYS258     -0.2867
     51  CB        39.9820   65.1340  149.3820 C.3   258  LYS258      0.0271
     52  CG        40.8380   65.3090  150.6230 C.3   258  LYS258      0.0035
     53  CD        41.2760   63.9460  151.1890 C.3   258  LYS258      0.0206
     54  CE        40.2020   63.2150  152.0150 C.3   258  LYS258      0.1093
     55  NZ        40.6160   61.8880  152.5320 N.3   258  LYS258     -0.1314
     56  N         38.2860   62.8630  144.6710 N.3   260  GLU260     -0.1196
     57  CA        38.1350   61.4280  144.8040 C.3   260  GLU260      0.1783
     58  C         37.2550   60.8210  143.7490 C.2   260  GLU260      0.2306
     59  O         37.0290   59.6090  143.7250 O.2   260  GLU260     -0.2863
     60  CB        37.5020   61.0800  146.1760 C.2   260  GLU260      0.0071
     61  CG        38.4520   61.1430  147.3970 C.2   260  GLU260      0.0834
     62  CD        37.8630   60.7890  148.7640 C.2   260  GLU260      0.3877
     63  OE1       37.3130   61.8570  149.2850 O.co2 260  GLU260     -0.2406
     64  OE2       37.9690   59.6880  149.3710 O.co2 260  GLU260     -0.2406
     65  N         44.2040   68.0680  147.2560 N.3   279  MET279     -0.1245
     66  CA        44.8420   66.8090  147.4900 C.3   279  MET279      0.1570
     67  C         44.3740   65.7820  146.4970 C.2   279  MET279      0.2261
     68  O         43.2010   65.7020  146.1240 O.2   279  MET279     -0.2867
     69  CB        44.6920   66.3180  148.9200 C.3   279  MET279      0.0387
     70  CG        45.4170   65.0120  149.1300 C.3   279  MET279      0.0595
     71  SD        44.6400   64.1700  150.5050 S.3   279  MET279     -0.1393
     72  CE        45.6190   62.6790  150.7400 C.3   279  MET279      0.0692
     73  N         43.5190   62.3370  145.9680 N.3   281  ALA281     -0.1245
     74  CA        43.1480   61.0530  146.6010 C.3   281  ALA281      0.1562
     75  C         43.1840   59.9340  145.5920 C.2   281  ALA281      0.2260
     76  O         42.1540   59.4470  145.1200 O.2   281  ALA281     -0.2867
     77  CB        41.7670   61.1100  147.2130 C.3   281  ALA281      0.0290
     78  N         43.9900   56.8720  145.8750 N.3   283  GLY283     -0.1210
     79  CA        43.3240   55.6770  146.4170 C.3   283  GLY283      0.1956
     80  C         41.9160   55.4870  145.8810 C.2   283  GLY283      0.2611
     81  O         41.6420   54.5950  145.0750 O.2   283  GLY283     -0.2717
     82  N         41.0270   56.3610  146.3250 N.am  284  ASP284     -0.1973
     83  CA        39.6380   56.3140  145.9190 C.3   284  ASP284      0.1709
     84  C         39.4710   56.5320  144.4090 C.2   284  ASP284      0.2293
     85  O         38.8190   55.7630  143.7060 O.2   284  ASP284     -0.2864
     86  CB        38.7290   57.1930  146.8200 C.3   284  ASP284      0.1436
     87  CG        37.9550   56.4670  147.9130 C.2   284  ASP284      0.3671
     88  OD1       38.5700   55.4590  148.4330 O.co2 284  ASP284     -0.2456
     89  OD2       36.8680   56.8930  148.3830 O.co2 284  ASP284     -0.2456
     90  N         49.0060   61.8720  147.0570 N.3   315  ALA315     -0.1231
     91  CA        48.8270   60.9230  148.1320 C.3   315  ALA315      0.1694
     92  C         48.5420   59.5020  147.7850 C.2   315  ALA315      0.2592
     93  O         48.0420   59.1970  146.7190 O.2   315  ALA315     -0.2718
     94  CB        47.6340   61.3830  148.9360 C.3   315  ALA315      0.0304
     95  N         48.8180   58.6500  148.7640 N.am  316  THR316     -0.1953
     96  CA        48.5220   57.2430  148.6510 C.3   316  THR316      0.1897
     97  C         49.3880   56.3110  147.8140 C.2   316  THR316      0.2313
     98  O         49.6350   56.4880  146.6310 O.2   316  THR316     -0.2863
     99  CB        47.0550   57.0390  148.2780 C.3   316  THR316      0.1794
    100  OG1       46.2220   57.7470  149.1890 O.3   316  THR316     -0.2208
    101  CG2       46.7290   55.5460  148.2720 C.3   316  THR316      0.0378
    102  N         52.9700   62.2780  150.7810 N.3   348  MET348     -0.1245
    103  CA        52.4850   61.6400  151.9710 C.3   348  MET348      0.1570
    104  C         52.4240   60.1090  151.9940 C.2   348  MET348      0.2261
    105  O         52.1680   59.3960  151.0180 O.2   348  MET348     -0.2867
    106  CB        51.1440   62.3410  152.3660 C.3   348  MET348      0.0387
    107  CG        50.0110   61.5210  152.9830 C.3   348  MET348      0.0595
    108  SD        48.4100   62.4100  152.8870 S.3   348  MET348     -0.1393
    109  CE        47.2070   61.0690  152.7110 C.3   348  MET348      0.0692
    110  N         50.6510   56.9150  154.0260 N.3   350  SER350     -0.1217
    111  CA        49.4680   56.6650  154.8110 C.3   350  SER350      0.1889
    112  C         49.7820   55.5160  155.7720 C.2   350  SER350      0.2288
    113  O         50.4360   55.6710  156.8070 O.2   350  SER350     -0.2866
    114  CB        48.3060   56.3740  153.8700 C.3   350  SER350      0.2089
    115  OG        48.0220   57.5240  153.0900 O.3   350  SER350     -0.2183
@<TRIPOS>BOND
     1    85    84    2
     2    59    58    2
     3    58    57    1
     4    84    83    1
     5    56    57    1
     6    57    60    1
     7    81    80    2
     8    76    75    2
     9    75    74    1
    10    78    79    1
    11    80    82   am
    12    80    79    1
    13    83    82    1
    14    83    86    1
    15    73    74    1
    16    68    67    2
    17    60    61    2
    18    67    66    1
    19    74    77    1
    20    98    97    2
    21    93    92    2
    22    86    87    1
    23    49    50    2
    24    49    48    1
    25    90    91    1
    26    65    66    1
    27    61    62    1
    28    66    69    1
    29    92    91    1
    30    92    95   am
    31    97    96    1
    32    87    89   ar
    33    87    88   ar
    34    91    94    1
    35   101    99    1
    36    99    96    1
    37    99   100    1
    38    48    47    1
    39    48    51    1
    40    96    95    1
    41    62    63   ar
    42    62    64   ar
    43    69    70    1
    44    70    71    1
    45    51    52    1
    46    71    72    1
    47    52    53    1
    48   102   103    1
    49    43    44    2
    50    43    42    1
    51   105   104    2
    52    53    54    1
    53    42    45    1
    54    42    41    1
    55   103   104    1
    56   103   106    1
    57    54    55    1
    58   106   107    1
    59    45    46    1
    60   109   108    1
    61   108   107    1
    62   115   114    1
    63   114   111    1
    64   110   111    1
    65    11     9    1
    66   111   112    1
    67    33    31   ar
    68    32    31   ar
    69     9    10    1
    70     9     8    2
    71    31    30    1
    72    40    38    1
    73    37    36    2
    74   112   113    2
    75     8     7    1
    76     7     6    1
    77    38    35    1
    78    38    39    1
    79    36    35    1
    80    25    24    1
    81    30    27    1
    82    19    17   am
    83     6     5    1
    84    34    35    1
    85    34    28   am
    86    27    28    1
    87    27    26    1
    88    28    29    2
    89    24    21    1
    90    18    17    2
    91    17    16    1
    92     5     2    1
    93    16    13    1
    94    21    20    1
    95    21    22    1
    96     2     1    1
    97     2     3    1
    98    13    12    1
    99    13    14    1
   100    23    22    2
   101     3     4    2
   102    14    15    2
