@<TRIPOS>MOLECULE
tmp/1aqfE00.pdb
 124 111 0 0 0
SMALL
GASTEIGER

@<TRIPOS>ATOM
      1  N         60.6230   36.4870  126.9320 N.3    61  ARG61      -0.1245
      2  CA        61.9540   36.4300  127.5080 C.3    61  ARG61       0.1563
      3  C         62.2130   35.2210  128.3720 C.2    61  ARG61       0.2260
      4  O         61.4050   34.8930  129.2320 O.2    61  ARG61      -0.2867
      5  CB        62.2950   37.6740  128.2890 C.3    61  ARG61       0.0307
      6  CG        63.4520   37.4230  129.2430 C.3    61  ARG61       0.0489
      7  CD        63.2620   38.1330  130.5860 C.3    61  ARG61       0.2205
      8  NE        64.4960   38.7000  131.1680 N.pl3  61  ARG61      -0.0865
      9  CZ        64.7140   38.7480  132.4840 C.cat  61  ARG61       0.5346
     10  NH1       63.8290   38.2370  133.3310 N.pl3  61  ARG61       0.1354
     11  NH2       65.8380   39.2930  132.9650 N.pl3  61  ARG61       0.1354
     12  N         64.6280   33.6250  131.1540 N.3    63  ASN63      -0.1240
     13  CA        65.7010   33.9140  132.1030 C.3    63  ASN63       0.1653
     14  C         66.7720   32.8530  132.1730 C.2    63  ASN63       0.2266
     15  O         66.5980   31.8140  132.8070 O.2    63  ASN63      -0.2867
     16  CB        65.2830   34.3940  133.4980 C.3    63  ASN63       0.1155
     17  CG        66.4140   35.1900  134.1070 C.2    63  ASN63       0.2627
     18  OD1       67.5480   35.1180  133.6140 O.2    63  ASN63      -0.2716
     19  ND2       66.1280   35.9570  135.1700 N.am   63  ASN63      -0.0877
     20  N         69.2780   32.8070  133.7770 N.3    65  SER65      -0.1217
     21  CA        69.8610   32.6490  135.0940 C.3    65  SER65       0.1889
     22  C         69.3160   31.3940  135.7530 C.2    65  SER65       0.2288
     23  O         69.7240   30.9870  136.8400 O.2    65  SER65      -0.2866
     24  CB        69.7290   33.8610  136.0150 C.3    65  SER65       0.2089
     25  OG        68.7960   34.7970  135.5160 O.3    65  SER65      -0.2183
     26  N         67.9660   36.2200  127.8690 N.3   101  ASP101     -0.1225
     27  CA        68.5660   36.9880  128.9130 C.3   101  ASP101      0.1805
     28  C         69.5800   36.0400  129.5160 C.2   101  ASP101      0.2598
     29  O         69.2950   34.9050  129.8890 O.2   101  ASP101     -0.2718
     30  CB        67.6380   37.6360  129.9560 C.3   101  ASP101      0.1424
     31  CG        68.3990   38.5300  130.9520 C.2   101  ASP101      0.3668
     32  OD1       69.1610   37.8420  131.7550 O.co2 101  ASP101     -0.2456
     33  OD2       68.3070   39.7390  131.0680 O.co2 101  ASP101     -0.2456
     34  N         70.8070   36.4720  129.5350 N.am  102  THR102     -0.1939
     35  CA        71.9650   35.7340  130.0120 C.3   102  THR102      0.2028
     36  C         72.1940   35.8810  131.5170 C.2   102  THR102      0.2642
     37  O         71.8310   36.9200  132.1140 O.2   102  THR102     -0.2714
     38  CB        73.0680   36.3460  129.1500 C.3   102  THR102      0.1808
     39  OG1       73.6670   35.3710  128.3370 O.3   102  THR102     -0.2208
     40  CG2       74.0660   37.1170  130.0120 C.3   102  THR102      0.0379
     41  N         72.8340   34.9440  132.2170 N.am  103  LYS103     -0.1977
     42  CA        73.0260   35.0910  133.6560 C.3   103  LYS103      0.1596
     43  C         74.2450   35.9830  134.0110 C.2   103  LYS103      0.2287
     44  O         74.2590   36.8790  134.8880 O.2   103  LYS103     -0.2864
     45  CB        73.1460   33.7430  134.3550 C.3   103  LYS103      0.0298
     46  CG        74.1850   33.6740  135.4820 C.3   103  LYS103      0.0038
     47  CD        74.6580   32.2520  135.7720 C.3   103  LYS103      0.0206
     48  CE        75.8780   32.2050  136.6890 C.3   103  LYS103      0.1093
     49  NZ        75.7270   31.2920  137.8430 N.3   103  LYS103     -0.1314
     50  N         73.8490   40.5900  130.0960 N.3   138  SER138     -0.1217
     51  CA        73.9280   40.9940  131.4930 C.3   138  SER138      0.1889
     52  C         75.2930   41.5460  131.8880 C.2   138  SER138      0.2288
     53  O         76.3500   41.1970  131.3450 O.2   138  SER138     -0.2866
     54  CB        73.4740   39.9470  132.5150 C.3   138  SER138      0.2089
     55  OG        72.2710   39.3220  132.1150 O.3   138  SER138     -0.2183
     56  N         72.8410   45.3140  129.3080 N.3   165  LYS165     -0.1245
     57  CA        72.1110   45.5480  130.5070 C.3   165  LYS165      0.1561
     58  C         72.9100   46.3690  131.4740 C.2   165  LYS165      0.2260
     59  O         73.9750   45.9440  131.9160 O.2   165  LYS165     -0.2867
     60  CB        71.5070   44.2720  131.0970 C.3   165  LYS165      0.0271
     61  CG        70.3230   43.8040  130.2490 C.3   165  LYS165      0.0035
     62  CD        69.8270   42.4270  130.6370 C.3   165  LYS165      0.0206
     63  CE        70.3590   42.0130  132.0040 C.3   165  LYS165      0.1093
     64  NZ        69.9080   40.6810  132.4220 N.3   165  LYS165     -0.1314
     65  N         73.6110   47.3040  134.7890 N.3   167  GLU167     -0.1196
     66  CA        73.3920   46.8630  136.1550 C.3   167  GLU167      0.1783
     67  C         74.2660   47.6270  137.1530 C.2   167  GLU167      0.2306
     68  O         74.1840   47.3570  138.3430 O.2   167  GLU167     -0.2863
     69  CB        73.6790   45.3130  136.2930 C.2   167  GLU167      0.0071
     70  CG        72.6890   44.2950  135.5930 C.2   167  GLU167      0.0834
     71  CD        72.9740   42.7720  135.6410 C.2   167  GLU167      0.3877
     72  OE1       73.3260   42.1270  136.6450 O.co2 167  GLU167     -0.2406
     73  OE2       72.7220   42.1850  134.4770 O.co2 167  GLU167     -0.2406
     74  N         68.9930   48.0090  127.8440 N.3   186  MET186     -0.1245
     75  CA        68.0260   47.6990  128.8990 C.3   186  MET186      0.1570
     76  C         68.3620   48.3350  130.2470 C.2   186  MET186      0.2261
     77  O         69.4790   48.1620  130.7120 O.2   186  MET186     -0.2867
     78  CB        67.9470   46.2010  129.1390 C.3   186  MET186      0.0387
     79  CG        67.1870   45.9150  130.4170 C.3   186  MET186      0.0595
     80  SD        67.0970   44.1410  130.7870 S.3   186  MET186     -0.1393
     81  CE        66.2460   43.4700  129.3590 C.3   186  MET186      0.0692
     82  N         68.1910   47.8600  133.5900 N.3   188  ALA188     -0.1245
     83  CA        67.9010   46.8610  134.5910 C.3   188  ALA188      0.1562
     84  C         67.8090   47.5290  135.9390 C.2   188  ALA188      0.2260
     85  O         68.7870   47.5680  136.6970 O.2   188  ALA188     -0.2867
     86  CB        69.0000   45.8170  134.5980 C.3   188  ALA188      0.0290
     87  N         66.6750   46.6470  138.6300 N.3   190  GLY190     -0.1210
     88  CA        66.8440   45.7600  139.7780 C.3   190  GLY190      0.1956
     89  C         68.2390   45.8080  140.3750 C.2   190  GLY190      0.2611
     90  O         68.5630   46.5870  141.2740 O.2   190  GLY190     -0.2717
     91  N         69.0730   44.9570  139.8240 N.am  191  ASP191     -0.1973
     92  CA        70.4660   44.8180  140.1630 C.3   191  ASP191      0.1709
     93  C         71.1030   46.2420  140.2480 C.2   191  ASP191      0.2293
     94  O         71.9370   46.5150  141.0980 O.2   191  ASP191     -0.2864
     95  CB        71.1720   43.7690  139.2260 C.3   191  ASP191      0.1436
     96  CG        70.6900   42.3320  139.1700 C.2   191  ASP191      0.3671
     97  OD1       70.1720   41.8510  140.2880 O.co2 191  ASP191     -0.2456
     98  OD2       70.8500   41.5980  138.1510 O.co2 191  ASP191     -0.2456
     99  N         62.7780   48.1380  132.7860 N.3   222  ALA222     -0.1231
    100  CA        62.2900   46.9440  133.4280 C.3   222  ALA222      0.1694
    101  C         62.4580   46.7900  134.9180 C.2   222  ALA222      0.2592
    102  O         63.2280   47.5010  135.5570 O.2   222  ALA222     -0.2718
    103  CB        62.9670   45.7720  132.7490 C.3   222  ALA222      0.0304
    104  N         61.7070   45.7930  135.4400 N.am  223  THR223     -0.1953
    105  CA        61.7580   45.4160  136.8340 C.3   223  THR223      0.1897
    106  C         60.8200   46.1060  137.8000 C.2   223  THR223      0.2313
    107  O         60.9590   47.2760  138.1570 O.2   223  THR223     -0.2863
    108  CB        63.1760   45.4210  137.4500 C.3   223  THR223      0.1794
    109  OG1       64.1980   45.2550  136.4930 O.3   223  THR223     -0.2208
    110  CG2       63.2740   44.3070  138.4720 C.3   223  THR223      0.0378
    111  N         58.7150   45.8920  130.4680 N.3   255  MET255     -0.1245
    112  CA        58.8610   44.5070  130.8790 C.3   255  MET255      0.1570
    113  C         58.2370   43.9690  132.1700 C.2   255  MET255      0.2261
    114  O         58.3360   44.5360  133.2620 O.2   255  MET255     -0.2867
    115  CB        60.3590   44.2690  130.9610 C.3   255  MET255      0.0387
    116  CG        60.8980   43.8180  129.6430 C.3   255  MET255      0.0595
    117  SD        61.9520   42.4270  129.9920 S.3   255  MET255     -0.1393
    118  CE        62.7120   43.0640  131.4900 C.3   255  MET255      0.0692
    119  N         58.4790   40.8060  134.6350 N.3   257  SER257     -0.1217
    120  CA        59.3280   39.7060  135.0350 C.3   257  SER257      0.1889
    121  C         58.5630   38.6320  135.8030 C.2   257  SER257      0.2288
    122  O         57.9480   37.7150  135.2350 O.2   257  SER257     -0.2866
    123  CB        60.5330   40.2520  135.7910 C.3   257  SER257      0.2089
    124  OG        60.7470   41.6110  135.4240 O.3   257  SER257     -0.2183
@<TRIPOS>BOND
     1     1     2    1
     2     2     5    1
     3     2     3    1
     4    74    75    1
     5    26    27    1
     6     5     6    1
     7    39    38    1
     8     3     4    2
     9    75    78    1
    10    75    76    1
    11    27    28    1
    12    27    30    1
    13    78    79    1
    14    38    35    1
    15    38    40    1
    16     6     7    1
    17    56    57    1
    18    81    80    1
    19    28    34   am
    20    28    29    2
    21    34    35    1
    22   116   117    1
    23   116   115    1
    24    30    31    1
    25   117   118    1
    26    35    36    1
    27    50    51    1
    28    76    77    2
    29    61    62    1
    30    61    60    1
    31    79    80    1
    32   111   112    1
    33    57    60    1
    34    57    58    1
    35     7     8    1
    36    62    63    1
    37   112   115    1
    38   112   113    1
    39    31    33   ar
    40    31    32   ar
    41    12    13    1
    42     8     9    2
    43    53    52    2
    44    58    59    2
    45    51    52    1
    46    51    54    1
    47    36    37    2
    48    36    41   am
    49    63    64    1
    50    13    14    1
    51    13    16    1
    52    55    54    1
    53   113   114    2
    54    14    15    2
    55    41    42    1
    56     9    11    1
    57     9    10    1
    58   103   100    1
    59    99   100    1
    60   100   101    1
    61    16    17    1
    62    82    83    1
    63    18    17    2
    64    42    43    1
    65    42    45    1
    66    20    21    1
    67    43    44    2
    68    17    19   am
    69    45    46    1
    70    73    71   ar
    71    83    86    1
    72    83    84    1
    73   119   120    1
    74    65    66    1
    75   101   104   am
    76   101   102    2
    77   120   123    1
    78   120   121    1
    79    21    22    1
    80    21    24    1
    81   122   121    2
    82   124   123    1
    83   104   105    1
    84    46    47    1
    85    25    24    1
    86    70    71    1
    87    70    69    2
    88    71    72   ar
    89    22    23    2
    90    47    48    1
    91    84    85    2
    92    66    69    1
    93    66    67    1
    94   109   108    1
    95    48    49    1
    96   105   108    1
    97   105   106    1
    98    67    68    2
    99   108   110    1
   100   106   107    2
   101    98    96   ar
   102    87    88    1
   103    96    95    1
   104    96    97   ar
   105    95    92    1
   106    88    89    1
   107    91    92    1
   108    91    89   am
   109    92    93    1
   110    93    94    2
   111    89    90    2
