@<TRIPOS>MOLECULE
tmp/1aqiA00.pdb
 151 147 0 0 0
SMALL
GASTEIGER

@<TRIPOS>ATOM
      1  N         33.0680   39.1110   12.7340 N.3     1  VAL1       -0.1245
      2  CA        31.8880   39.7550   13.3730 C.3     1  VAL1        0.1561
      3  C         32.3250   40.8710   14.3340 C.2     1  VAL1        0.2260
      4  O         33.2010   40.6750   15.1860 O.2     1  VAL1       -0.2867
      5  CB        31.0190   38.7050   14.1040 C.3     1  VAL1        0.0252
      6  CG1       30.5450   37.6400   13.1220 C.3     1  VAL1        0.0019
      7  CG2       31.7990   38.0620   15.2350 C.3     1  VAL1        0.0019
      8  N         44.1910   38.5580   20.8250 N.3    27  ALA27      -0.1245
      9  CA        43.7280   39.0310   19.5070 C.3    27  ALA27       0.1562
     10  C         43.1110   40.4410   19.6210 C.2    27  ALA27       0.2260
     11  O         42.0700   40.7410   19.0280 O.2    27  ALA27      -0.2867
     12  CB        42.7060   38.0250   18.9330 C.3    27  ALA27       0.0290
     13  N         44.0340   43.8100   18.5200 N.3    29  ALA29      -0.1245
     14  CA        43.9220   44.8800   17.5330 C.3    29  ALA29       0.1562
     15  C         44.1990   46.1960   18.2890 C.2    29  ALA29       0.2260
     16  O         45.2760   46.3780   18.8400 O.2    29  ALA29      -0.2867
     17  CB        42.5380   44.8830   16.9050 C.3    29  ALA29       0.0290
     18  N         47.7250   40.7860   23.0960 N.3    50  VAL50      -0.1231
     19  CA        48.4900   39.9390   22.1840 C.3    50  VAL50       0.1692
     20  C         47.8690   40.0020   20.8010 C.2    50  VAL50       0.2592
     21  O         46.6970   39.6480   20.6250 O.2    50  VAL50      -0.2718
     22  CB        48.5130   38.4760   22.6560 C.3    50  VAL50       0.0266
     23  CG1       49.2600   37.6130   21.6450 C.3    50  VAL50       0.0020
     24  CG2       49.1660   38.3750   24.0350 C.3    50  VAL50       0.0020
     25  N         48.6590   40.4480   19.8250 N.am   51  GLU51      -0.1966
     26  CA        48.2090   40.5860   18.4370 C.3    51  GLU51       0.1733
     27  C         49.2640   39.9940   17.5040 C.2    51  GLU51       0.2616
     28  O         50.4570   40.1890   17.7080 O.2    51  GLU51      -0.2715
     29  CB        47.9740   42.0630   18.1320 C.3    51  GLU51       0.0429
     30  CG        47.6350   42.3830   16.7020 C.3    51  GLU51       0.1163
     31  CD        46.4310   41.6430   16.2140 C.2    51  GLU51       0.3649
     32  OE1       45.3500   41.7840   16.8060 O.co2  51  GLU51      -0.2457
     33  OE2       46.5620   40.9110   15.2260 O.co2  51  GLU51      -0.2457
     34  N         48.8230   39.2390   16.5060 N.am   52  ILE52      -0.1963
     35  CA        49.7390   38.6000   15.5580 C.3    52  ILE52       0.1727
     36  C         50.0950   39.4670   14.3440 C.2    52  ILE52       0.2616
     37  O         51.0960   39.2450   13.6840 O.2    52  ILE52      -0.2715
     38  CB        49.1480   37.2780   15.0320 C.3    52  ILE52       0.0290
     39  CG1       50.2440   36.4220   14.4070 C.3    52  ILE52       0.0022
     40  CG2       48.0760   37.5570   13.9780 C.3    52  ILE52       0.0023
     41  CD1       49.7260   35.1940   13.7320 C.3    52  ILE52       0.0001
     42  N         49.2440   40.4380   14.0430 N.am   53  ASP53      -0.1971
     43  CA        49.4400   41.3180   12.9080 C.3    53  ASP53       0.1709
     44  C         49.9330   42.6710   13.3950 C.2    53  ASP53       0.2293
     45  O         49.1660   43.4670   13.9240 O.2    53  ASP53      -0.2864
     46  CB        48.1080   41.4680   12.1560 C.3    53  ASP53       0.1436
     47  CG        48.1960   42.4040   10.9590 C.2    53  ASP53       0.3671
     48  OD1       49.3080   42.8250   10.5800 O.co2  53  ASP53      -0.2456
     49  OD2       47.1360   42.7160   10.3810 O.co2  53  ASP53      -0.2456
     50  N         47.9250   45.6620   12.7900 N.3    56  ALA56      -0.1245
     51  CA        46.6870   45.7710   13.5710 C.3    56  ALA56       0.1562
     52  C         46.9040   46.2260   15.0120 C.2    56  ALA56       0.2260
     53  O         46.0180   46.8320   15.6230 O.2    56  ALA56      -0.2867
     54  CB        45.9260   44.4370   13.5490 C.3    56  ALA56       0.0290
     55  N         52.3720   38.3330   18.6900 N.3    68  ALA68      -0.1231
     56  CA        52.5340   36.8800   18.6700 C.3    68  ALA68       0.1694
     57  C         51.2600   36.1030   18.3640 C.2    68  ALA68       0.2592
     58  O         50.1600   36.6550   18.3610 O.2    68  ALA68      -0.2718
     59  CB        53.1240   36.4040   20.0020 C.3    68  ALA68       0.0304
     60  N         51.4390   34.8150   18.0760 N.am   69  ASP69      -0.1960
     61  CA        50.3350   33.9050   17.7980 C.3    69  ASP69       0.1840
     62  C         49.9090   33.4190   19.1690 C.2    69  ASP69       0.2622
     63  O         50.5350   32.5300   19.7340 O.2    69  ASP69      -0.2715
     64  CB        50.8110   32.7170   16.9490 C.3    69  ASP69       0.1450
     65  CG        49.6930   31.7250   16.6120 C.2    69  ASP69       0.3671
     66  OD1       48.5740   31.8470   17.1670 O.co2  69  ASP69      -0.2456
     67  OD2       49.9410   30.8120   15.7830 O.co2  69  ASP69      -0.2456
     68  N         48.8400   34.0060   19.6930 N.am   70  PHE70      -0.1960
     69  CA        48.3240   33.6560   21.0090 C.3    70  PHE70       0.1771
     70  C         48.3130   32.1580   21.2620 C.2    70  PHE70       0.2619
     71  O         48.7430   31.6980   22.3050 O.2    70  PHE70      -0.2715
     72  CB        46.9150   34.2210   21.1880 C.3    70  PHE70       0.0574
     73  CG        46.3130   33.9230   22.5260 C.ar   70  PHE70      -0.0200
     74  CD1       46.8630   34.4580   23.6840 C.ar   70  PHE70      -0.0042
     75  CD2       45.2060   33.0920   22.6320 C.ar   70  PHE70      -0.0042
     76  CE1       46.3130   34.1630   24.9340 C.ar   70  PHE70      -0.0003
     77  CE2       44.6510   32.7920   23.8710 C.ar   70  PHE70      -0.0003
     78  CZ        45.2030   33.3270   25.0260 C.ar   70  PHE70      -0.0000
     79  N         47.8720   31.3980   20.2720 N.am   71  LEU71      -0.1977
     80  CA        47.7870   29.9580   20.3980 C.3    71  LEU71       0.1596
     81  C         49.1020   29.2470   20.6630 C.2    71  LEU71       0.2287
     82  O         49.1230   28.1560   21.2230 O.2    71  LEU71      -0.2864
     83  CB        47.0910   29.3770   19.1750 C.3    71  LEU71       0.0297
     84  CG        45.6260   29.8120   19.0610 C.3    71  LEU71       0.0022
     85  CD1       44.9820   29.1630   17.8550 C.3    71  LEU71       0.0001
     86  CD2       44.8740   29.4180   20.3310 C.3    71  LEU71       0.0001
     87  N         37.1530   38.8830   22.2030 N.3    85  ASN85      -0.1226
     88  CA        36.3640   38.2890   21.1430 C.3    85  ASN85       0.1770
     89  C         37.3910   37.5790   20.2650 C.2    85  ASN85       0.2439
     90  O         38.1450   38.2170   19.5280 O.2    85  ASN85      -0.2733
     91  CB        35.6370   39.3700   20.3400 C.3    85  ASN85       0.1168
     92  CG        34.6970   38.7910   19.2750 C.2    85  ASN85       0.2627
     93  OD1       33.9640   39.5290   18.6210 O.2    85  ASN85      -0.2716
     94  ND2       34.7120   37.4710   19.1040 N.am   85  ASN85      -0.0877
     95  N         37.4670   36.2480   20.3700 N.am   86  PRO86      -0.2718
     96  CA        38.4260   35.4910   19.5690 C.3    86  PRO86       0.1520
     97  C         37.8970   35.2920   18.1540 C.2    86  PRO86       0.2440
     98  O         36.6830   35.3740   17.9160 O.2    86  PRO86      -0.2731
     99  CB        38.4830   34.1620   20.3110 C.3    86  PRO86       0.0310
    100  CG        37.0530   33.9670   20.6800 C.3    86  PRO86       0.0237
    101  CD        36.6440   35.3450   21.1940 C.3    86  PRO86       0.0939
    102  N         38.8010   35.0800   17.1850 N.am   87  PRO87      -0.2716
    103  CA        38.3570   34.8680   15.8100 C.3    87  PRO87       0.1536
    104  C         37.6090   33.5500   15.7360 C.2    87  PRO87       0.2598
    105  O         37.9580   32.5880   16.4340 O.2    87  PRO87      -0.2715
    106  CB        39.6720   34.7920   15.0360 C.3    87  PRO87       0.0310
    107  CG        40.6250   34.2450   16.0210 C.3    87  PRO87       0.0237
    108  CD        40.2700   35.0400   17.2660 C.3    87  PRO87       0.0939
    109  N         36.5450   33.5340   14.9450 N.am   88  TYR88      -0.1974
    110  CA        35.7380   32.3360   14.7620 C.3    88  TYR88       0.1639
    111  C         36.1880   31.7300   13.4360 C.2    88  TYR88       0.2290
    112  O         36.6450   32.4560   12.5550 O.2    88  TYR88      -0.2864
    113  CB        34.2530   32.7010   14.6550 C.3    88  TYR88       0.0560
    114  CG        33.7020   33.5920   15.7530 C.ar   88  TYR88      -0.0198
    115  CD1       34.3520   33.7220   16.9870 C.ar   88  TYR88      -0.0009
    116  CD2       32.5100   34.2960   15.5570 C.ar   88  TYR88      -0.0009
    117  CE1       33.8260   34.5320   17.9950 C.ar   88  TYR88       0.0417
    118  CE2       31.9740   35.0990   16.5570 C.ar   88  TYR88       0.0417
    119  CZ        32.6340   35.2130   17.7710 C.ar   88  TYR88       0.1957
    120  OH        32.0870   36.0030   18.7530 O.3    88  TYR88      -0.2866
    121  N         48.7590   22.7890   15.9270 N.3    98  TYR98      -0.1241
    122  CA        47.6620   23.0910   16.8420 C.3    98  TYR98       0.1605
    123  C         47.0720   21.8050   17.4090 C.2    98  TYR98       0.2264
    124  O         46.8940   21.6770   18.6240 O.2    98  TYR98      -0.2867
    125  CB        46.5580   23.8740   16.1230 C.3    98  TYR98       0.0534
    126  CG        46.8780   25.3150   15.7690 C.ar   98  TYR98      -0.0201
    127  CD1       47.8660   26.0350   16.4530 C.ar   98  TYR98      -0.0009
    128  CD2       46.1610   25.9700   14.7700 C.ar   98  TYR98      -0.0009
    129  CE1       48.1260   27.3800   16.1460 C.ar   98  TYR98       0.0417
    130  CE2       46.4100   27.3130   14.4590 C.ar   98  TYR98       0.0417
    131  CZ        47.3910   28.0090   15.1520 C.ar   98  TYR98       0.1957
    132  OH        47.6080   29.3380   14.8720 O.3    98  TYR98      -0.2866
    133  N         38.6850   27.6690   15.6180 N.3   111  LEU111     -0.1245
    134  CA        39.6580   28.4770   16.3230 C.3   111  LEU111      0.1561
    135  C         39.1750   28.9820   17.6760 C.2   111  LEU111      0.2260
    136  O         39.9590   29.0030   18.6230 O.2   111  LEU111     -0.2867
    137  CB        40.1170   29.6470   15.4590 C.3   111  LEU111      0.0270
    138  CG        41.0990   29.2760   14.3550 C.3   111  LEU111      0.0019
    139  CD1       41.5780   30.5450   13.6860 C.3   111  LEU111      0.0001
    140  CD2       42.2790   28.5210   14.9300 C.3   111  LEU111      0.0001
    141  N         41.2190   28.8960   21.3070 N.3   115  PHE115     -0.1241
    142  CA        41.4300   30.1060   22.1070 C.3   115  PHE115      0.1605
    143  C         40.8890   29.9140   23.5190 C.2   115  PHE115      0.2264
    144  O         41.4750   30.3860   24.4830 O.2   115  PHE115     -0.2867
    145  CB        40.7510   31.3110   21.4610 C.3   115  PHE115      0.0534
    146  CG        41.6550   32.1050   20.5550 C.ar  115  PHE115     -0.0203
    147  CD1       41.9440   31.6620   19.2700 C.ar  115  PHE115     -0.0042
    148  CD2       42.2160   33.2960   20.9900 C.ar  115  PHE115     -0.0042
    149  CE1       42.7820   32.4000   18.4370 C.ar  115  PHE115     -0.0003
    150  CE2       43.0550   34.0390   20.1660 C.ar  115  PHE115     -0.0003
    151  CZ        43.3390   33.5960   18.8890 C.ar  115  PHE115     -0.0000
@<TRIPOS>BOND
     1    49    47   ar
     2    48    47   ar
     3    47    46    1
     4    46    43    1
     5   112   111    2
     6     1     2    1
     7    50    51    1
     8    43    44    1
     9    43    42    1
    10     6     5    1
    11     2     5    1
    12     2     3    1
    13    44    45    2
    14   111   110    1
    15    54    51    1
    16    51    52    1
    17    37    36    2
    18   139   138    1
    19    41    39    1
    20    40    38    1
    21    42    36   am
    22     5     7    1
    23     3     4    2
    24    36    35    1
    25   138   140    1
    26   138   137    1
    27    39    38    1
    28   130   128   ar
    29   130   131   ar
    30   113   110    1
    31   113   114    1
    32   110   109    1
    33   128   126   ar
    34   132   131    1
    35   109   104   am
    36    52    53    2
    37    38    35    1
    38   106   103    1
    39   106   107    1
    40   131   129   ar
    41    33    31   ar
    42   137   134    1
    43   116   114   ar
    44   116   118   ar
    45    35    34    1
    46   133   134    1
    47   104   103    1
    48   104   105    2
    49   114   115   ar
    50   126   125    1
    51   126   127   ar
    52    67    65   ar
    53   103   102    1
    54   121   122    1
    55   107   108    1
    56   125   122    1
    57   129   127   ar
    58    31    30    1
    59    31    32   ar
    60   134   135    1
    61    34    27   am
    62   118   119   ar
    63    65    64    1
    64    65    66   ar
    65    30    29    1
    66   122   123    1
    67    17    14    1
    68    64    61    1
    69   115   117   ar
    70   102   108    1
    71   102    97   am
    72   123   124    2
    73    27    28    2
    74    27    26    1
    75    14    15    1
    76    14    13    1
    77   135   136    2
    78   119   117   ar
    79   119   120    1
    80    61    60    1
    81    61    62    1
    82    85    84    1
    83    98    97    2
    84    60    57   am
    85    29    26    1
    86    97    96    1
    87    15    16    2
    88    58    57    2
    89    57    56    1
    90   149   151   ar
    91   149   147   ar
    92    26    25    1
    93    93    92    2
    94    56    55    1
    95    56    59    1
    96   151   150   ar
    97    12     9    1
    98    11    10    2
    99    84    83    1
   100    84    86    1
   101    94    92   am
   102    62    68   am
   103    62    63    2
   104    83    80    1
   105   147   146   ar
   106    92    91    1
   107     9    10    1
   108     9     8    1
   109    90    89    2
   110    96    99    1
   111    96    95    1
   112    68    69    1
   113    25    20   am
   114   150   148   ar
   115    89    95   am
   116    89    88    1
   117    79    80    1
   118    79    70   am
   119    99   100    1
   120    91    88    1
   121    95   101    1
   122    80    81    1
   123   146   148   ar
   124   146   145    1
   125    21    20    2
   126    81    82    2
   127   100   101    1
   128    20    19    1
   129    69    72    1
   130    69    70    1
   131    88    87    1
   132    72    73    1
   133    70    71    2
   134   141   142    1
   135   145   142    1
   136    23    22    1
   137   142   143    1
   138    19    22    1
   139    19    18    1
   140    73    75   ar
   141    73    74   ar
   142    75    77   ar
   143    22    24    1
   144   143   144    2
   145    74    76   ar
   146    77    78   ar
   147    76    78   ar
