@<TRIPOS>MOLECULE
tmp/1aqjB00.pdb
 160 156 0 0 0
SMALL
GASTEIGER

@<TRIPOS>ATOM
      1  N         11.3620   36.5190   38.6540 N.3     1  VAL1       -0.1231
      2  CA        10.9590   36.9880   40.0170 C.3     1  VAL1        0.1692
      3  C         10.5500   35.8370   40.9500 C.2     1  VAL1        0.2591
      4  O         11.4130   35.2530   41.6120 O.2     1  VAL1       -0.2718
      5  CB         9.8390   38.0740   39.9530 C.3     1  VAL1        0.0266
      6  CG1        9.4140   38.5000   41.3640 C.3     1  VAL1        0.0020
      7  CG2       10.3330   39.2900   39.1780 C.3     1  VAL1        0.0020
      8  N          9.2580   35.4960   40.9930 N.am    2  GLU2       -0.1979
      9  CA         8.7660   34.4200   41.8650 C.3     2  GLU2        0.1602
     10  C          9.2450   34.7880   43.2720 C.2     2  GLU2        0.2287
     11  O          9.4110   35.9730   43.5780 O.2     2  GLU2       -0.2864
     12  CB         9.3730   33.0730   41.4270 C.3     2  GLU2        0.0415
     13  CG         8.7400   31.8250   42.0480 C.3     2  GLU2        0.1163
     14  CD         9.6120   30.5780   41.9120 C.2     2  GLU2        0.3649
     15  OE1       10.8120   30.7000   41.5750 O.co2   2  GLU2       -0.2457
     16  OE2        9.0920   29.4680   42.1580 O.co2   2  GLU2       -0.2457
     17  N         -2.4650   38.9080   47.1850 N.3    27  ALA27      -0.1245
     18  CA        -1.9670   38.4750   45.8840 C.3    27  ALA27       0.1562
     19  C         -1.2900   37.1130   46.0380 C.2    27  ALA27       0.2260
     20  O         -0.2550   36.8380   45.4160 O.2    27  ALA27      -0.2867
     21  CB        -0.9750   39.5050   45.3700 C.3    27  ALA27       0.0290
     22  N         -2.2760   33.8730   45.1890 N.3    29  ALA29      -0.1245
     23  CA        -2.3190   32.8480   44.1440 C.3    29  ALA29       0.1562
     24  C         -2.5750   31.4780   44.7970 C.2    29  ALA29       0.2260
     25  O         -3.7140   31.1610   45.1520 O.2    29  ALA29      -0.2867
     26  CB        -1.0230   32.8440   43.3270 C.3    29  ALA29       0.0290
     27  N         -5.9970   36.7260   49.7060 N.3    50  VAL50      -0.1231
     28  CA        -6.7010   37.5790   48.7490 C.3    50  VAL50       0.1692
     29  C         -5.9980   37.5620   47.3930 C.2    50  VAL50       0.2592
     30  O         -4.8460   37.9940   47.2700 O.2    50  VAL50      -0.2718
     31  CB        -6.7880   39.0350   49.2600 C.3    50  VAL50       0.0266
     32  CG1       -7.5730   39.9010   48.2800 C.3    50  VAL50       0.0020
     33  CG2       -7.4230   39.0640   50.6460 C.3    50  VAL50       0.0020
     34  N         -6.7090   37.0820   46.3790 N.am   51  GLU51      -0.1966
     35  CA        -6.1890   36.9760   45.0180 C.3    51  GLU51       0.1733
     36  C         -7.2580   37.5050   44.0630 C.2    51  GLU51       0.2616
     37  O         -8.4480   37.3190   44.2930 O.2    51  GLU51      -0.2715
     38  CB        -5.8410   35.5170   44.7290 C.3    51  GLU51       0.0429
     39  CG        -5.6610   35.1600   43.2820 C.3    51  GLU51       0.1163
     40  CD        -4.4970   35.8530   42.6470 C.2    51  GLU51       0.3649
     41  OE1       -3.4040   35.8970   43.2450 O.co2  51  GLU51      -0.2457
     42  OE2       -4.6750   36.3490   41.5280 O.co2  51  GLU51      -0.2457
     43  N         -6.8270   38.1570   42.9900 N.am   52  ILE52      -0.1963
     44  CA        -7.7490   38.7630   42.0290 C.3    52  ILE52       0.1727
     45  C         -8.1420   37.9060   40.8220 C.2    52  ILE52       0.2616
     46  O         -9.1820   38.1250   40.2100 O.2    52  ILE52      -0.2715
     47  CB        -7.1620   40.0920   41.5230 C.3    52  ILE52       0.0290
     48  CG1       -8.2460   40.9500   40.8760 C.3    52  ILE52       0.0022
     49  CG2       -6.0280   39.8210   40.5440 C.3    52  ILE52       0.0023
     50  CD1       -7.7480   42.2960   40.3960 C.3    52  ILE52       0.0001
     51  N         -7.3070   36.9340   40.4850 N.am   53  ASP53      -0.1971
     52  CA        -7.5470   36.0630   39.3390 C.3    53  ASP53       0.1709
     53  C         -8.0570   34.6830   39.7790 C.2    53  ASP53       0.2293
     54  O         -7.3630   33.9570   40.5030 O.2    53  ASP53      -0.2864
     55  CB        -6.2450   35.9450   38.5360 C.3    53  ASP53       0.1436
     56  CG        -6.3660   35.0470   37.3210 C.2    53  ASP53       0.3671
     57  OD1       -7.4690   34.9260   36.7460 O.co2  53  ASP53      -0.2456
     58  OD2       -5.3340   34.4650   36.9280 O.co2  53  ASP53      -0.2456
     59  N         -5.7890   31.7880   39.3140 N.3    56  ALA56      -0.1245
     60  CA        -4.5690   31.7310   40.1130 C.3    56  ALA56       0.1562
     61  C         -4.8480   31.3410   41.5570 C.2    56  ALA56       0.2260
     62  O         -4.0130   30.7210   42.2110 O.2    56  ALA56      -0.2867
     63  CB        -3.8370   33.0620   40.0540 C.3    56  ALA56       0.0290
     64  N        -10.6720   39.0180   45.1240 N.3    68  ALA68      -0.1231
     65  CA       -10.9060   40.4530   45.0610 C.3    68  ALA68       0.1694
     66  C         -9.6230   41.1850   44.7300 C.2    68  ALA68       0.2592
     67  O         -8.5700   40.5720   44.5570 O.2    68  ALA68      -0.2718
     68  CB       -11.4610   40.9570   46.3960 C.3    68  ALA68       0.0304
     69  N         -9.7280   42.5040   44.6170 N.am   69  ASP69      -0.1960
     70  CA        -8.5810   43.3570   44.3390 C.3    69  ASP69       0.1840
     71  C         -8.1810   43.8550   45.7100 C.2    69  ASP69       0.2622
     72  O         -8.9000   44.6520   46.3080 O.2    69  ASP69      -0.2715
     73  CB        -8.9930   44.5480   43.4630 C.3    69  ASP69       0.1450
     74  CG        -7.8270   45.4780   43.1340 C.2    69  ASP69       0.3671
     75  OD1       -6.9330   45.6720   43.9820 O.co2  69  ASP69      -0.2456
     76  OD2       -7.8140   46.0370   42.0210 O.co2  69  ASP69      -0.2456
     77  N         -7.0350   43.3960   46.1980 N.am   70  PHE70      -0.1960
     78  CA        -6.5570   43.7960   47.5120 C.3    70  PHE70       0.1771
     79  C         -6.6850   45.2990   47.7110 C.2    70  PHE70       0.2619
     80  O         -7.2070   45.7510   48.7220 O.2    70  PHE70      -0.2715
     81  CB        -5.1010   43.3830   47.7020 C.3    70  PHE70       0.0574
     82  CG        -4.5670   43.6770   49.0790 C.ar   70  PHE70      -0.0200
     83  CD1       -5.1830   43.1380   50.2070 C.ar   70  PHE70      -0.0042
     84  CD2       -3.4480   44.4840   49.2510 C.ar   70  PHE70      -0.0042
     85  CE1       -4.6880   43.3960   51.4860 C.ar   70  PHE70      -0.0003
     86  CE2       -2.9460   44.7460   50.5220 C.ar   70  PHE70      -0.0003
     87  CZ        -3.5660   44.2020   51.6440 C.ar   70  PHE70      -0.0000
     88  N         -6.2530   46.0620   46.7110 N.am   71  LEU71      -0.1977
     89  CA        -6.3050   47.5140   46.7800 C.3    71  LEU71       0.1596
     90  C         -7.7150   48.0620   46.9520 C.2    71  LEU71       0.2287
     91  O         -7.9080   49.0760   47.6090 O.2    71  LEU71      -0.2864
     92  CB        -5.6190   48.1330   45.5620 C.3    71  LEU71       0.0297
     93  CG        -4.1260   47.8000   45.4680 C.3    71  LEU71       0.0022
     94  CD1       -3.4770   48.5370   44.3130 C.3    71  LEU71       0.0001
     95  CD2       -3.4430   48.1710   46.7650 C.3    71  LEU71       0.0001
     96  N          4.3090   39.0330   48.7260 N.3    85  ASN85      -0.1226
     97  CA         5.1650   39.5530   47.6820 C.3    85  ASN85       0.1770
     98  C          4.1860   40.2920   46.7940 C.2    85  ASN85       0.2439
     99  O          3.5230   39.6940   45.9420 O.2    85  ASN85      -0.2733
    100  CB         5.8130   38.4130   46.9090 C.3    85  ASN85       0.1168
    101  CG         6.6590   38.8990   45.7540 C.2    85  ASN85       0.2627
    102  OD1        7.0820   38.1140   44.9140 O.2    85  ASN85      -0.2716
    103  ND2        6.9040   40.1970   45.6970 N.am   85  ASN85      -0.0877
    104  N          4.0550   41.6010   47.0040 N.am   86  PRO86      -0.2718
    105  CA         3.1420   42.4410   46.2350 C.3    86  PRO86       0.1520
    106  C          3.6020   42.6150   44.8070 C.2    86  PRO86       0.2440
    107  O          4.7600   42.3790   44.4940 O.2    86  PRO86      -0.2731
    108  CB         3.2160   43.7620   46.9810 C.3    86  PRO86       0.0310
    109  CG         4.6590   43.8220   47.3500 C.3    86  PRO86       0.0237
    110  CD         4.9070   42.4280   47.8780 C.3    86  PRO86       0.0939
    111  N          2.6680   42.9350   43.9040 N.am   87  PRO87      -0.2716
    112  CA         2.9700   43.1500   42.4900 C.3    87  PRO87       0.1536
    113  C          3.8990   44.3530   42.3450 C.2    87  PRO87       0.2598
    114  O          3.7610   45.3440   43.0660 O.2    87  PRO87      -0.2715
    115  CB         1.5960   43.4760   41.9050 C.3    87  PRO87       0.0310
    116  CG         0.6980   42.6580   42.7220 C.3    87  PRO87       0.0237
    117  CD         1.2130   42.9000   44.1170 C.3    87  PRO87       0.0939
    118  N          4.8560   44.2550   41.4350 N.am   88  TYR88      -0.1974
    119  CA         5.7810   45.3450   41.1850 C.3    88  TYR88       0.1639
    120  C          5.3920   45.9120   39.8230 C.2    88  TYR88       0.2290
    121  O          5.3500   45.1680   38.8400 O.2    88  TYR88      -0.2864
    122  CB         7.2170   44.8250   41.0950 C.3    88  TYR88       0.0560
    123  CG         7.6950   43.9860   42.2530 C.ar   88  TYR88      -0.0198
    124  CD1        7.0790   44.0530   43.5020 C.ar   88  TYR88      -0.0009
    125  CD2        8.7940   43.1370   42.1030 C.ar   88  TYR88      -0.0009
    126  CE1        7.5500   43.2940   44.5790 C.ar   88  TYR88       0.0417
    127  CE2        9.2690   42.3770   43.1700 C.ar   88  TYR88       0.0417
    128  CZ         8.6430   42.4650   44.4010 C.ar   88  TYR88       0.1957
    129  OH         9.1270   41.7260   45.4510 O.3    88  TYR88      -0.2866
    130  N         -7.4070   54.1540   42.6960 N.3    99  TYR99      -0.1241
    131  CA        -6.1960   53.9830   43.5060 C.3    99  TYR99       0.1605
    132  C         -5.7300   55.3300   44.0420 C.2    99  TYR99       0.2264
    133  O         -5.5730   55.5030   45.2520 O.2    99  TYR99      -0.2867
    134  CB        -5.0610   53.3490   42.6890 C.3    99  TYR99       0.0534
    135  CG        -5.2610   51.8970   42.2910 C.ar   99  TYR99      -0.0201
    136  CD1       -6.2510   51.1130   42.8840 C.ar   99  TYR99      -0.0009
    137  CD2       -4.4590   51.3120   41.3130 C.ar   99  TYR99      -0.0009
    138  CE1       -6.4410   49.7810   42.5040 C.ar   99  TYR99       0.0417
    139  CE2       -4.6380   49.9850   40.9270 C.ar   99  TYR99       0.0417
    140  CZ        -5.6310   49.2240   41.5280 C.ar   99  TYR99       0.1957
    141  OH        -5.8270   47.9190   41.1380 O.3    99  TYR99      -0.2866
    142  N          2.7140   49.8840   42.1100 N.3   112  LEU112     -0.1245
    143  CA         1.7540   49.0840   42.8670 C.3   112  LEU112      0.1561
    144  C          2.2590   48.5740   44.2160 C.2   112  LEU112      0.2260
    145  O          1.4920   48.5400   45.1870 O.2   112  LEU112     -0.2867
    146  CB         1.2440   47.9120   42.0310 C.3   112  LEU112      0.0270
    147  CG         0.3330   48.2450   40.8480 C.3   112  LEU112      0.0019
    148  CD1       -0.0320   46.9690   40.1060 C.3   112  LEU112      0.0001
    149  CD2       -0.9170   48.9550   41.3320 C.3   112  LEU112      0.0001
    150  N          0.3220   48.6040   47.8090 N.3   116  PHE116     -0.1241
    151  CA         0.0990   47.4110   48.6200 C.3   116  PHE116      0.1605
    152  C          0.6060   47.6410   50.0420 C.2   116  PHE116      0.2264
    153  O         -0.0200   47.2060   50.9980 O.2   116  PHE116     -0.2867
    154  CB         0.7930   46.1950   47.9970 C.3   116  PHE116      0.0534
    155  CG        -0.0770   45.4280   47.0580 C.ar  116  PHE116     -0.0203
    156  CD1       -0.4930   45.9910   45.8610 C.ar  116  PHE116     -0.0042
    157  CD2       -0.5570   44.1760   47.4100 C.ar  116  PHE116     -0.0042
    158  CE1       -1.3830   45.3210   45.0340 C.ar  116  PHE116     -0.0003
    159  CE2       -1.4460   43.5000   46.5900 C.ar  116  PHE116     -0.0003
    160  CZ        -1.8630   44.0760   45.4000 C.ar  116  PHE116     -0.0000
@<TRIPOS>BOND
     1    57    56   ar
     2    58    56   ar
     3    56    55    1
     4    55    52    1
     5     1     2    1
     6   121   120    2
     7     7     5    1
     8    59    60    1
     9    52    53    1
    10    52    51    1
    11    53    54    2
    12   120   119    1
    13     5     2    1
    14     5     6    1
    15     2     3    1
    16    63    60    1
    17   148   147    1
    18    60    61    1
    19    46    45    2
    20    50    48    1
    21    51    45   am
    22    49    47    1
    23    45    44    1
    24   147   149    1
    25   147   146    1
    26    48    47    1
    27   139   137   ar
    28   139   140   ar
    29     3     8   am
    30     3     4    2
    31     8     9    1
    32   122   119    1
    33   122   123    1
    34   141   140    1
    35   119   118    1
    36   137   135   ar
    37    12     9    1
    38    12    13    1
    39   118   113   am
    40    47    44    1
    41   140   138   ar
    42    42    40   ar
    43    61    62    2
    44    15    14   ar
    45     9    10    1
    46   115   112    1
    47   115   116    1
    48    14    13    1
    49    14    16   ar
    50    76    74   ar
    51    44    43    1
    52   146   143    1
    53   125   123   ar
    54   125   127   ar
    55   142   143    1
    56   123   124   ar
    57   135   134    1
    58   135   136   ar
    59   113   112    1
    60   113   114    2
    61   112   111    1
    62   138   136   ar
    63    40    41   ar
    64    40    39    1
    65   134   131    1
    66   130   131    1
    67   116   117    1
    68   143   144    1
    69    43    36   am
    70    74    73    1
    71    74    75   ar
    72   127   128   ar
    73    10    11    2
    74    39    38    1
    75    26    23    1
    76    73    70    1
    77   124   126   ar
    78   131   132    1
    79   111   117    1
    80   111   106   am
    81   132   133    2
    82    36    37    2
    83    36    35    1
    84    23    24    1
    85    23    22    1
    86   144   145    2
    87    94    93    1
    88    70    69    1
    89    70    71    1
    90   128   126   ar
    91   128   129    1
    92   107   106    2
    93    67    66    2
    94    69    66   am
    95    38    35    1
    96    66    65    1
    97    24    25    2
    98   106   105    1
    99   102   101    2
   100    35    34    1
   101   158   160   ar
   102   158   156   ar
   103    65    64    1
   104    65    68    1
   105    21    18    1
   106   160   159   ar
   107    20    19    2
   108    93    92    1
   109    93    95    1
   110    92    89    1
   111   103   101   am
   112    71    77   am
   113    71    72    2
   114   101   100    1
   115   156   155   ar
   116    18    19    1
   117    18    17    1
   118    99    98    2
   119    77    78    1
   120   105   108    1
   121   105   104    1
   122    34    29   am
   123   159   157   ar
   124    88    89    1
   125    88    79   am
   126    89    90    1
   127    98   104   am
   128    98    97    1
   129   100    97    1
   130    90    91    2
   131   108   109    1
   132   104   110    1
   133   155   157   ar
   134   155   154    1
   135    30    29    2
   136   109   110    1
   137    29    28    1
   138    78    81    1
   139    78    79    1
   140    97    96    1
   141    81    82    1
   142    79    80    2
   143   150   151    1
   144   154   151    1
   145    32    31    1
   146   151   152    1
   147    28    31    1
   148    28    27    1
   149    82    84   ar
   150    82    83   ar
   151    84    86   ar
   152    31    33    1
   153   152   153    2
   154    83    85   ar
   155    86    87   ar
   156    85    87   ar
