@<TRIPOS>MOLECULE
tmp/1aqlB02.pdb
 101 98 0 0 0
SMALL
GASTEIGER

@<TRIPOS>ATOM
      1  N         28.3160   61.5130   30.3310 N.3   117  ALA117     -0.1231
      2  CA        28.6150   60.1570   30.7630 C.3   117  ALA117      0.1694
      3  C         28.2360   60.0350   32.2140 C.2   117  ALA117      0.2592
      4  O         28.1320   61.0360   32.9260 O.2   117  ALA117     -0.2718
      5  CB        30.0880   59.8640   30.5950 C.3   117  ALA117      0.0304
      6  N         28.0410   58.8060   32.6540 N.am  118  ASN118     -0.1960
      7  CA        27.6940   58.5720   34.0350 C.3   118  ASN118      0.1819
      8  C         28.2120   57.2250   34.5090 C.2   118  ASN118      0.2621
      9  O         28.5790   56.3600   33.6980 O.2   118  ASN118     -0.2715
     10  CB        26.1770   58.6590   34.2310 C.3   118  ASN118      0.1195
     11  CG        25.4400   57.4250   33.7350 C.2   118  ASN118      0.2630
     12  OD1       25.7080   56.9100   32.6480 O.2   118  ASN118     -0.2716
     13  ND2       24.4910   56.9500   34.5360 N.am  118  ASN118     -0.0877
     14  N         28.3570   57.1030   35.8230 N.am  119  PHE119     -0.1974
     15  CA        28.7790   55.8480   36.4210 C.3   119  PHE119      0.1639
     16  C         27.8640   55.7180   37.6060 C.2   119  PHE119      0.2290
     17  O         27.8770   56.5790   38.4710 O.2   119  PHE119     -0.2864
     18  CB        30.2310   55.8930   36.8690 C.3   119  PHE119      0.0560
     19  CG        30.6860   54.6370   37.5300 C.ar  119  PHE119     -0.0200
     20  CD1       30.8880   53.4800   36.7880 C.ar  119  PHE119     -0.0042
     21  CD2       30.8930   54.6020   38.9010 C.ar  119  PHE119     -0.0042
     22  CE1       31.2910   52.2960   37.3990 C.ar  119  PHE119     -0.0003
     23  CE2       31.2970   53.4230   39.5300 C.ar  119  PHE119     -0.0003
     24  CZ        31.4970   52.2620   38.7740 C.ar  119  PHE119     -0.0000
     25  N         26.0750   58.7700   38.3740 N.3   122  ASN122     -0.1225
     26  CA        26.9780   59.9030   38.4450 C.3   122  ASN122      0.1785
     27  C         27.1310   60.5080   37.0580 C.2   122  ASN122      0.2597
     28  O         27.9520   60.0460   36.2770 O.2   122  ASN122     -0.2718
     29  CB        28.3450   59.4750   38.9700 C.3   122  ASN122      0.1169
     30  CG        29.2800   60.6480   39.1490 C.2   122  ASN122      0.2627
     31  OD1       28.8410   61.8000   39.1810 O.2   122  ASN122     -0.2716
     32  ND2       30.5730   60.3690   39.2690 N.am  122  ASN122     -0.0877
     33  N         26.3160   61.5130   36.7560 N.am  123  TYR123     -0.1962
     34  CA        26.3490   62.1730   35.4570 C.3   123  TYR123      0.1771
     35  C         27.2730   63.3730   35.4370 C.2   123  TYR123      0.2619
     36  O         27.0460   64.3640   36.1290 O.2   123  TYR123     -0.2715
     37  CB        24.9550   62.6280   35.0430 C.3   123  TYR123      0.0574
     38  CG        23.9540   61.5130   34.8880 C.ar  123  TYR123     -0.0198
     39  CD1       23.8140   60.8410   33.6820 C.ar  123  TYR123     -0.0009
     40  CD2       23.1140   61.1630   35.9360 C.ar  123  TYR123     -0.0009
     41  CE1       22.8610   59.8530   33.5290 C.ar  123  TYR123      0.0417
     42  CE2       22.1620   60.1820   35.7870 C.ar  123  TYR123      0.0417
     43  CZ        22.0370   59.5340   34.5870 C.ar  123  TYR123      0.1957
     44  OH        21.0740   58.5680   34.4480 O.3   123  TYR123     -0.2866
     45  N         28.2360   63.3250   34.5310 N.am  124  LEU124     -0.1977
     46  CA        29.2340   64.3690   34.3630 C.3   124  LEU124      0.1596
     47  C         28.6990   65.8150   34.2570 C.2   124  LEU124      0.2287
     48  O         29.3760   66.7650   34.6840 O.2   124  LEU124     -0.2864
     49  CB        30.1010   64.0160   33.1480 C.3   124  LEU124      0.0297
     50  CG        31.1850   65.0030   32.7520 C.3   124  LEU124      0.0022
     51  CD1       32.1420   65.1810   33.9030 C.3   124  LEU124      0.0001
     52  CD2       31.8650   64.5160   31.5160 C.3   124  LEU124      0.0001
     53  N         35.2200   67.8190   34.9440 N.3   440  GLN440     -0.1245
     54  CA        34.9370   67.4200   36.3280 C.3   440  GLN440      0.1566
     55  C         35.0900   68.5700   37.3160 C.2   440  GLN440      0.2260
     56  O         34.2680   68.7450   38.2050 O.2   440  GLN440     -0.2867
     57  CB        35.8890   66.3010   36.7360 C.3   440  GLN440      0.0367
     58  CG        37.3220   66.7760   36.8570 C.3   440  GLN440      0.0905
     59  CD        38.3170   65.6590   36.8850 C.2   440  GLN440      0.2608
     60  OE1       38.0460   64.5730   37.4010 O.2   440  GLN440     -0.2717
     61  NE2       39.4840   65.9090   36.3120 N.am  440  GLN440     -0.0878
     62  N         32.6670   68.1230   40.3560 N.3   445  LYS445     -0.1245
     63  CA        32.8890   66.7330   40.7120 C.3   445  LYS445      0.1561
     64  C         33.6460   66.4700   42.0290 C.2   445  LYS445      0.2260
     65  O         33.2210   65.6280   42.8110 O.2   445  LYS445     -0.2867
     66  CB        33.5240   65.9950   39.5440 C.3   445  LYS445      0.0271
     67  CG        32.5270   65.6320   38.4890 C.3   445  LYS445      0.0035
     68  CD        31.8480   64.3260   38.8230 C.3   445  LYS445      0.0206
     69  CE        30.4700   64.2340   38.1700 C.3   445  LYS445      0.1093
     70  NZ        29.4400   65.0340   38.9100 N.3   445  LYS445     -0.1314
     71  N         31.6480   64.3140   44.5500 N.3   449  THR449     -0.1218
     72  CA        32.1920   62.9660   44.6200 C.3   449  THR449      0.1862
     73  C         33.6390   63.0440   45.1750 C.2   449  THR449      0.2287
     74  O         34.5970   62.5170   44.5880 O.2   449  THR449     -0.2866
     75  CB        32.0950   62.2980   43.2090 C.3   449  THR449      0.1770
     76  OG1       32.2880   60.8840   43.3060 O.3   449  THR449     -0.2211
     77  CG2       33.0990   62.8770   42.2620 C.3   449  THR449      0.0375
     78  N         35.4850   61.5020   47.5930 N.3   451  LEU451     -0.1231
     79  CA        36.3110   60.3110   47.7890 C.3   451  LEU451      0.1693
     80  C         37.2900   59.9640   46.6580 C.2   451  LEU451      0.2593
     81  O         38.0430   59.0060   46.7630 O.2   451  LEU451     -0.2718
     82  CB        35.3930   59.1210   48.0550 C.3   451  LEU451      0.0284
     83  CG        35.6210   58.3670   49.3570 C.3   451  LEU451      0.0019
     84  CD1       36.5500   57.2000   49.1180 C.3   451  LEU451      0.0001
     85  CD2       36.1540   59.3140   50.3810 C.3   451  LEU451      0.0001
     86  N         37.2410   60.7030   45.5570 N.am  452  GLY452     -0.1942
     87  CA        38.1430   60.4470   44.4500 C.3   452  GLY452      0.2014
     88  C         38.8920   61.7230   44.1320 C.2   452  GLY452      0.2638
     89  O         39.4010   61.9270   43.0290 O.2   452  GLY452     -0.2714
     90  N         38.9420   62.6080   45.1150 N.am  453  TYR453     -0.1973
     91  CA        39.6180   63.8770   44.9460 C.3   453  TYR453      0.1639
     92  C         40.3450   64.2900   46.2180 C.2   453  TYR453      0.2290
     93  O         40.0890   63.7670   47.3050 O.2   453  TYR453     -0.2864
     94  CB        38.6320   64.9530   44.4870 C.3   453  TYR453      0.0560
     95  CG        38.0370   64.6650   43.1380 C.ar  453  TYR453     -0.0198
     96  CD1       36.9400   63.8210   43.0090 C.ar  453  TYR453     -0.0009
     97  CD2       38.6130   65.1790   41.9820 C.ar  453  TYR453     -0.0009
     98  CE1       36.4370   63.4850   41.7610 C.ar  453  TYR453      0.0417
     99  CE2       38.1120   64.8530   40.7160 C.ar  453  TYR453      0.0417
    100  CZ        37.0310   64.0030   40.6170 C.ar  453  TYR453      0.1957
    101  OH        36.5540   63.6440   39.3810 O.3   453  TYR453     -0.2866
@<TRIPOS>BOND
     1     1     2    1
     2     5     2    1
     3     2     3    1
     4    52    50    1
     5     3     6   am
     6     3     4    2
     7    12    11    2
     8     6     7    1
     9    50    49    1
    10    50    51    1
    11    49    46    1
    12    41    39   ar
    13    41    43   ar
    14    39    38   ar
    15     9     8    2
    16    11    10    1
    17    11    13   am
    18     7    10    1
    19     7     8    1
    20    47    46    1
    21    47    48    2
    22    46    45    1
    23    44    43    1
    24     8    14   am
    25    45    35   am
    26    43    42   ar
    27    38    37    1
    28    38    40   ar
    29    53    54    1
    30    37    34    1
    31    35    34    1
    32    35    36    2
    33    34    33    1
    34    42    40   ar
    35    14    15    1
    36    28    27    2
    37    61    59   am
    38    54    57    1
    39    54    55    1
    40    15    18    1
    41    15    16    1
    42    57    58    1
    43    33    27   am
    44    20    22   ar
    45    20    19   ar
    46    58    59    1
    47    18    19    1
    48    59    60    2
    49    27    26    1
    50    55    56    2
    51    22    24   ar
    52    19    21   ar
    53    16    17    2
    54    69    68    1
    55    69    70    1
    56    25    26    1
    57    26    29    1
    58    67    68    1
    59    67    66    1
    60    24    23   ar
    61    21    23   ar
    62    29    30    1
    63    30    31    2
    64    30    32   am
    65   101   100    1
    66    66    63    1
    67    62    63    1
    68   100    99   ar
    69   100    98   ar
    70    63    64    1
    71    99    97   ar
    72    98    96   ar
    73    97    95   ar
    74    64    65    2
    75    77    75    1
    76    96    95   ar
    77    89    88    2
    78    95    94    1
    79    75    76    1
    80    75    72    1
    81    88    87    1
    82    88    90   am
    83    87    86    1
    84    94    91    1
    85    71    72    1
    86    74    73    2
    87    72    73    1
    88    91    90    1
    89    91    92    1
    90    86    80   am
    91    92    93    2
    92    80    81    2
    93    80    79    1
    94    78    79    1
    95    79    82    1
    96    82    83    1
    97    84    83    1
    98    83    85    1
