@<TRIPOS>MOLECULE
tmp/1aqlB03.pdb
 162 157 0 0 0
SMALL
GASTEIGER

@<TRIPOS>ATOM
      1  N         36.9490   79.8890   15.3830 N.3   224  LEU224     -0.1245
      2  CA        38.0850   79.8800   14.4710 C.3   224  LEU224      0.1561
      3  C         38.9090   78.5760   14.4380 C.2   224  LEU224      0.2260
      4  O         39.9570   78.5220   13.8010 O.2   224  LEU224     -0.2867
      5  CB        39.0040   81.0660   14.8120 C.3   224  LEU224      0.0270
      6  CG        38.3680   82.3950   15.2500 C.3   224  LEU224      0.0019
      7  CD1       39.4330   83.4590   15.2580 C.3   224  LEU224      0.0001
      8  CD2       37.2260   82.8050   14.3360 C.3   224  LEU224      0.0001
      9  N         40.3280   75.0420   13.3450 N.3   226  PRO226     -0.2116
     10  CA        40.4490   74.2760   12.1100 C.3   226  PRO226      0.1372
     11  C         39.4540   73.1230   12.0480 C.2   226  PRO226      0.2244
     12  O         38.7730   72.9410   11.0480 O.2   226  PRO226     -0.2868
     13  CB        41.8940   73.7680   12.1650 C.3   226  PRO226      0.0268
     14  CG        42.3090   73.9450   13.6200 C.3   226  PRO226      0.0207
     15  CD        41.6410   75.2240   13.9730 C.3   226  PRO226      0.0892
     16  N         42.9960   64.9330   12.1440 N.3   282  LEU282     -0.1231
     17  CA        42.1900   66.1070   11.8230 C.3   282  LEU282      0.1693
     18  C         41.5730   65.8840   10.4200 C.2   282  LEU282      0.2592
     19  O         40.4500   66.2970   10.1300 O.2   282  LEU282     -0.2718
     20  CB        43.0970   67.3350   11.7860 C.3   282  LEU282      0.0284
     21  CG        42.5100   68.7270   12.0600 C.3   282  LEU282      0.0019
     22  CD1       43.5140   69.7710   11.5840 C.3   282  LEU282      0.0001
     23  CD2       41.1780   68.9480   11.3650 C.3   282  LEU282      0.0001
     24  N         42.3050   65.1670    9.5780 N.am  283  HIS283     -0.1976
     25  CA        41.8730   64.8860    8.2210 C.3   283  HIS283      0.1656
     26  C         40.8540   63.7570    8.1370 C.2   283  HIS283      0.2291
     27  O         40.8390   62.9820    7.1880 O.2   283  HIS283     -0.2864
     28  CB        43.0950   64.5730    7.3510 C.3   283  HIS283      0.0771
     29  CG        44.0830   65.6980    7.2770 C.ar  283  HIS283      0.0820
     30  ND1       45.3190   65.6420    7.8850 N.ar  283  HIS283     -0.2267
     31  CD2       44.0000   66.9270    6.7080 C.ar  283  HIS283      0.1154
     32  CE1       45.9520   66.7860    7.6990 C.ar  283  HIS283      0.1986
     33  NE2       45.1750   67.5850    6.9880 N.ar  283  HIS283     -0.2212
     34  N         33.1240   83.6920    6.9240 N.3   299  ASP299     -0.1239
     35  CA        34.1410   83.1820    7.8300 C.3   299  ASP299      0.1674
     36  C         33.8920   83.7850    9.2140 C.2   299  ASP299      0.2266
     37  O         33.8290   85.0130    9.3700 O.2   299  ASP299     -0.2867
     38  CB        35.5380   83.5600    7.3300 C.3   299  ASP299      0.1410
     39  CG        36.6050   82.5810    7.7810 C.2   299  ASP299      0.3668
     40  OD1       36.7670   82.3740    9.0020 O.co2 299  ASP299     -0.2456
     41  OD2       37.2870   82.0160    6.9030 O.co2 299  ASP299     -0.2456
     42  N         35.5000   84.6120   11.6230 N.3   301  VAL301     -0.1245
     43  CA        36.3940   85.7320   11.9610 C.3   301  VAL301      0.1561
     44  C         35.8070   87.1320   11.7200 C.2   301  VAL301      0.2260
     45  O         36.0210   88.0540   12.5160 O.2   301  VAL301     -0.2867
     46  CB        37.7830   85.6330   11.2310 C.3   301  VAL301      0.0252
     47  CG1       38.4000   84.2640   11.4460 C.3   301  VAL301      0.0019
     48  CG2       37.6580   85.9190    9.7440 C.3   301  VAL301      0.0019
     49  N         51.9890   66.8380    7.8160 N.3   350  GLY350     -0.1210
     50  CA        50.5980   66.4270    7.8930 C.3   350  GLY350      0.1956
     51  C         49.6560   67.4830    8.4550 C.2   350  GLY350      0.2612
     52  O         48.4430   67.3540    8.3320 O.2   350  GLY350     -0.2717
     53  N         50.2050   68.5160    9.0840 N.am  351  LEU351     -0.1965
     54  CA        49.4020   69.5820    9.6600 C.3   351  LEU351      0.1728
     55  C         49.5530   70.8790    8.8750 C.2   351  LEU351      0.2617
     56  O         49.0240   71.9220    9.2780 O.2   351  LEU351     -0.2715
     57  CB        49.8090   69.8110   11.1140 C.3   351  LEU351      0.0311
     58  CG        49.7350   68.5860   12.0290 C.3   351  LEU351      0.0022
     59  CD1       50.3070   68.9400   13.3800 C.3   351  LEU351      0.0001
     60  CD2       48.2950   68.0900   12.1540 C.3   351  LEU351      0.0001
     61  N         50.2960   70.8200    7.7680 N.am  352  THR352     -0.1937
     62  CA        50.5190   71.9950    6.9130 C.3   352  THR352      0.2028
     63  C         50.1290   71.7640    5.4450 C.2   352  THR352      0.2642
     64  O         50.4870   72.5650    4.5650 O.2   352  THR352     -0.2714
     65  CB        51.9940   72.4930    6.9710 C.3   352  THR352      0.1808
     66  OG1       52.8940   71.3820    6.8600 O.3   352  THR352     -0.2208
     67  CG2       52.2650   73.2350    8.2650 C.3   352  THR352      0.0379
     68  N         49.3660   70.6960    5.1910 N.am  353  VAL353     -0.1963
     69  CA        48.9150   70.3600    3.8330 C.3   353  VAL353      0.1727
     70  C         48.5130   71.5970    3.0210 C.2   353  VAL353      0.2616
     71  O         48.9540   71.7610    1.8850 O.2   353  VAL353     -0.2715
     72  CB        47.7250   69.3630    3.8550 C.3   353  VAL353      0.0290
     73  CG1       47.1410   69.2260    2.4680 C.3   353  VAL353      0.0023
     74  CG2       48.1720   67.9930    4.3680 C.3   353  VAL353      0.0023
     75  N         47.7370   72.4870    3.6370 N.am  354  THR354     -0.1951
     76  CA        47.2730   73.7100    2.9830 C.3   354  THR354      0.1897
     77  C         48.3610   74.5700    2.3110 C.2   354  THR354      0.2313
     78  O         48.0710   75.2750    1.3470 O.2   354  THR354     -0.2863
     79  CB        46.4660   74.5870    3.9740 C.3   354  THR354      0.1794
     80  OG1       45.3750   73.8220    4.5050 O.3   354  THR354     -0.2208
     81  CG2       45.9190   75.8390    3.2860 C.3   354  THR354      0.0378
     82  N         48.8850   73.9210   19.6320 N.3   390  ASP390     -0.1225
     83  CA        48.9400   75.2390   19.0150 C.3   390  ASP390      0.1805
     84  C         47.9460   75.4690   17.8740 C.2   390  ASP390      0.2597
     85  O         47.2010   76.4620   17.8750 O.2   390  ASP390     -0.2718
     86  CB        50.3690   75.5530   18.5400 C.3   390  ASP390      0.1424
     87  CG        51.2450   76.1470   19.6410 C.2   390  ASP390      0.3668
     88  OD1       51.2490   77.3810   19.8320 O.co2 390  ASP390     -0.2456
     89  OD2       51.9640   75.3860   20.3020 O.co2 390  ASP390     -0.2456
     90  N         47.9320   74.5490   16.9150 N.am  391  ILE391     -0.1980
     91  CA        47.0680   74.6760   15.7480 C.3   391  ILE391      0.1595
     92  C         45.6210   74.3470   16.0600 C.2   391  ILE391      0.2287
     93  O         44.7130   75.0730   15.6720 O.2   391  ILE391     -0.2864
     94  CB        47.5630   73.7890   14.5790 C.3   391  ILE391      0.0276
     95  CG1       47.4390   72.3140   14.9420 C.3   391  ILE391      0.0022
     96  CG2       49.0220   74.0880   14.2650 C.3   391  ILE391      0.0022
     97  CD1       47.9140   71.3760   13.8700 C.3   391  ILE391      0.0001
     98  N         46.3890   78.9260   19.1850 N.3   395  ILE395     -0.1231
     99  CA        46.2740   80.0600   18.2630 C.3   395  ILE395      0.1678
    100  C         44.8210   80.3380   17.8550 C.2   395  ILE395      0.2434
    101  O         44.3820   81.4900   17.8820 O.2   395  ILE395     -0.2733
    102  CB        47.2450   79.9540   17.0410 C.3   395  ILE395      0.0265
    103  CG1       48.6840   80.2540   17.4740 C.3   395  ILE395      0.0019
    104  CG2       46.9140   81.0060   15.9910 C.3   395  ILE395      0.0020
    105  CD1       49.2860   79.2320   18.3740 C.3   395  ILE395      0.0001
    106  N         44.0600   79.3050   17.4580 N.am  396  PRO396     -0.2729
    107  CA        42.6650   79.5810   17.0920 C.3   396  PRO396      0.1401
    108  C         41.9940   80.3840   18.2210 C.2   396  PRO396      0.2269
    109  O         41.4230   81.4600   17.9960 O.2   396  PRO396     -0.2865
    110  CB        42.0540   78.1850   17.0130 C.3   396  PRO396      0.0296
    111  CG        43.1800   77.3670   16.4920 C.3   396  PRO396      0.0237
    112  CD        44.4140   77.8960   17.1890 C.3   396  PRO396      0.0939
    113  N         43.4490   84.0600   18.5230 N.3   399  ILE399     -0.1245
    114  CA        42.8890   84.9780   17.5350 C.3   399  ILE399      0.1561
    115  C         41.4330   85.3240   17.8870 C.2   399  ILE399      0.2260
    116  O         40.9700   86.4550   17.6780 O.2   399  ILE399     -0.2867
    117  CB        42.9400   84.3610   16.1250 C.3   399  ILE399      0.0252
    118  CG1       44.3840   84.0250   15.7550 C.3   399  ILE399      0.0019
    119  CG2       42.3220   85.3130   15.1060 C.3   399  ILE399      0.0019
    120  CD1       44.5180   83.1400   14.5220 C.3   399  ILE399      0.0001
    121  N         52.2890   81.8600   13.0230 N.3   522  TRP522     -0.1227
    122  CA        51.1080   81.3640   12.3180 C.3   522  TRP522      0.1737
    123  C         50.2480   82.4930   11.7590 C.2   522  TRP522      0.2596
    124  O         49.6300   82.3250   10.7120 O.2   522  TRP522     -0.2718
    125  CB        50.2650   80.4850   13.2350 C.3   522  TRP522      0.0564
    126  CG        50.9680   79.3000   13.8160 C.ar  522  TRP522      0.0003
    127  CD1       51.4230   79.1710   15.1020 C.ar  522  TRP522      0.0946
    128  CD2       51.1430   78.0240   13.2010 C.ar  522  TRP522      0.0152
    129  NE1       51.8440   77.8830   15.3320 N.ar  522  TRP522     -0.2442
    130  CE2       51.6810   77.1520   14.1790 C.ar  522  TRP522      0.0810
    131  CE3       50.8800   77.5200   11.9180 C.ar  522  TRP522      0.0012
    132  CZ2       51.9570   75.8090   13.9260 C.ar  522  TRP522      0.0191
    133  CZ3       51.1550   76.1800   11.6610 C.ar  522  TRP522      0.0001
    134  CH2       51.6880   75.3400   12.6640 C.ar  522  TRP522      0.0015
    135  N         50.2210   83.6330   12.4510 N.am  523  THR523     -0.1953
    136  CA        49.4300   84.7840   12.0180 C.3   523  THR523      0.1897
    137  C         50.0880   85.6370   10.9210 C.2   523  THR523      0.2313
    138  O         49.4640   85.9120    9.8970 O.2   523  THR523     -0.2863
    139  CB        49.0230   85.6790   13.2260 C.3   523  THR523      0.1794
    140  OG1       48.2130   84.9200   14.1290 O.3   523  THR523     -0.2208
    141  CG2       48.2210   86.8880   12.7750 C.3   523  THR523      0.0378
    142  N         53.5590   82.3080    8.3860 N.3   526  TYR526     -0.1227
    143  CA        52.8730   81.2180    7.6920 C.3   526  TYR526      0.1736
    144  C         51.6390   81.6590    6.8840 C.2   526  TYR526      0.2595
    145  O         51.2950   81.0400    5.8670 O.2   526  TYR526     -0.2718
    146  CB        52.5120   80.1300    8.7110 C.3   526  TYR526      0.0548
    147  CG        51.9490   78.8250    8.1630 C.ar  526  TYR526     -0.0200
    148  CD1       50.6140   78.7260    7.7620 C.ar  526  TYR526     -0.0009
    149  CD2       52.7210   77.6680    8.1440 C.ar  526  TYR526     -0.0009
    150  CE1       50.0630   77.5050    7.3660 C.ar  526  TYR526      0.0417
    151  CE2       52.1800   76.4450    7.7550 C.ar  526  TYR526      0.0417
    152  CZ        50.8510   76.3680    7.3670 C.ar  526  TYR526      0.1957
    153  OH        50.3070   75.1550    7.0020 O.3   526  TYR526     -0.2866
    154  N         50.9880   82.7360    7.3080 N.am  527  GLN527     -0.1979
    155  CA        49.8150   83.2040    6.5860 C.3   527  GLN527      0.1601
    156  C         50.0700   83.8190    5.2170 C.2   527  GLN527      0.2287
    157  O         49.2320   83.6980    4.3240 O.2   527  GLN527     -0.2864
    158  CB        48.9830   84.1510    7.4430 C.3   527  GLN527      0.0394
    159  CG        48.0410   83.4140    8.3570 C.3   527  GLN527      0.0908
    160  CD        47.5340   82.1330    7.7200 C.2   527  GLN527      0.2608
    161  OE1       46.7380   82.1610    6.7840 O.2   527  GLN527     -0.2717
    162  NE2       48.0280   81.0020    8.2030 N.am  527  GLN527     -0.0878
@<TRIPOS>BOND
     1    78    77    2
     2    71    70    2
     3    77    76    1
     4    73    72    1
     5    76    75    1
     6    76    79    1
     7    70    75   am
     8    70    69    1
     9    81    79    1
    10    69    72    1
    11    69    68    1
    12    72    74    1
    13    79    80    1
    14   157   156    2
    15    64    63    2
    16    68    63   am
    17   156   155    1
    18    63    62    1
    19   145   144    2
    20   155   154    1
    21   155   158    1
    22    31    33   ar
    23    31    29   ar
    24   161   160    2
    25    66    65    1
    26   144   154   am
    27   144   143    1
    28    41    39   ar
    29    62    65    1
    30    62    61    1
    31    34    35    1
    32    65    67    1
    33    33    32   ar
    34   153   152    1
    35    27    26    2
    36    29    28    1
    37    29    30   ar
    38    38    39    1
    39    38    35    1
    40    28    25    1
    41   150   152   ar
    42   150   148   ar
    43   152   151   ar
    44   158   159    1
    45   143   142    1
    46   143   146    1
    47    32    30   ar
    48   160   162   am
    49   160   159    1
    50   151   149   ar
    51   148   147   ar
    52    61    55   am
    53    39    40   ar
    54    49    50    1
    55    35    36    1
    56    50    51    1
    57    26    25    1
    58   149   147   ar
    59   147   146    1
    60    25    24    1
    61    52    51    2
    62    51    53   am
    63    55    56    2
    64    55    54    1
    65    53    54    1
    66    36    37    2
    67    24    18   am
    68    54    57    1
    69    48    46    1
    70   138   137    2
    71    19    18    2
    72    18    17    1
    73   124   123    2
    74   137   136    1
    75    12    11    2
    76    57    58    1
    77    46    47    1
    78    46    43    1
    79    23    21    1
    80    22    21    1
    81    42    43    1
    82   133   131   ar
    83   133   134   ar
    84    44    43    1
    85    44    45    2
    86   123   122    1
    87   123   135   am
    88    20    17    1
    89    20    21    1
    90    17    16    1
    91   131   128   ar
    92   136   135    1
    93   136   139    1
    94    58    60    1
    95    58    59    1
    96    11    10    1
    97    10    13    1
    98    10     9    1
    99    13    14    1
   100   122   121    1
   101   122   125    1
   102   134   132   ar
   103   141   139    1
   104   128   126   ar
   105   128   130   ar
   106   139   140    1
   107   125   126    1
   108     9    15    1
   109    14    15    1
   110     4     3    2
   111   126   127   ar
   112    97    95    1
   113   132   130   ar
   114   130   129   ar
   115    96    94    1
   116     8     6    1
   117     3     2    1
   118     2     5    1
   119     2     1    1
   120   120   118    1
   121    94    95    1
   122    94    91    1
   123     5     6    1
   124   127   129   ar
   125   119   117    1
   126     6     7    1
   127    93    92    2
   128    91    92    1
   129    91    90    1
   130   118   117    1
   131   104   102    1
   132   117   114    1
   133   111   110    1
   134   111   112    1
   135    90    84   am
   136   110   107    1
   137   102   103    1
   138   102    99    1
   139   107   106    1
   140   107   108    1
   141   112   106    1
   142   106   100   am
   143   103   105    1
   144   114   115    1
   145   114   113    1
   146   116   115    2
   147   100   101    2
   148   100    99    1
   149    84    85    2
   150    84    83    1
   151   109   108    2
   152    99    98    1
   153    86    83    1
   154    86    87    1
   155    83    82    1
   156    87    88   ar
   157    87    89   ar
