@<TRIPOS>MOLECULE
tmp/1aqmA00.pdb
 123 119 0 0 0
SMALL
GASTEIGER

@<TRIPOS>ATOM
      1  N         12.0820   37.5690   14.7370 N.3    46  TRP46      -0.1241
      2  CA        12.9650   36.4360   14.4750 C.3    46  TRP46       0.1605
      3  C         13.6860   36.5420   13.1300 C.2    46  TRP46       0.2264
      4  O         14.8580   36.1860   13.0210 O.2    46  TRP46      -0.2867
      5  CB        12.1930   35.1120   14.5450 C.3    46  TRP46       0.0550
      6  CG        11.1740   34.9370   13.4620 C.ar   46  TRP46       0.0003
      7  CD1        9.8550   35.2690   13.5260 C.ar   46  TRP46       0.0946
      8  CD2       11.3920   34.3930   12.1440 C.ar   46  TRP46       0.0152
      9  NE1        9.2360   34.9710   12.3330 N.ar   46  TRP46      -0.2442
     10  CE2       10.1520   34.4330   11.4690 C.ar   46  TRP46       0.0810
     11  CE3       12.5190   33.8770   11.4730 C.ar   46  TRP46       0.0012
     12  CZ2        9.9960   33.9780   10.1490 C.ar   46  TRP46       0.0191
     13  CZ3       12.3670   33.4240   10.1570 C.ar   46  TRP46       0.0001
     14  CH2       11.1110   33.4780    9.5120 C.ar   46  TRP46       0.0015
     15  N         17.9030   36.8420    9.2350 N.3    50  TYR50      -0.1241
     16  CA        18.0680   36.5820    7.8040 C.3    50  TYR50       0.1605
     17  C         18.3770   37.7910    6.9190 C.2    50  TYR50       0.2264
     18  O         18.2310   37.7400    5.7020 O.2    50  TYR50      -0.2867
     19  CB        16.8820   35.7700    7.2850 C.3    50  TYR50       0.0534
     20  CG        16.8390   34.4060    7.9530 C.ar   50  TYR50      -0.0201
     21  CD1       16.2410   34.2410    9.2090 C.ar   50  TYR50      -0.0009
     22  CD2       17.5040   33.3110    7.3920 C.ar   50  TYR50      -0.0009
     23  CE1       16.3160   33.0220    9.8960 C.ar   50  TYR50       0.0417
     24  CE2       17.5870   32.0920    8.0730 C.ar   50  TYR50       0.0417
     25  CZ        16.9970   31.9570    9.3250 C.ar   50  TYR50       0.1957
     26  OH        17.1220   30.7790   10.0260 O.3    50  TYR50      -0.2866
     27  N         21.9280   36.6070   -0.0980 N.3    89  HIS89      -0.1241
     28  CA        21.6790   38.0380    0.0260 C.3    89  HIS89       0.1621
     29  C         22.2470   38.7340    1.2650 C.2    89  HIS89       0.2264
     30  O         22.8670   38.1020    2.1290 O.2    89  HIS89      -0.2867
     31  CB        20.1560   38.2090    0.0500 C.3    89  HIS89       0.0745
     32  CG        19.4800   37.3760    1.1060 C.ar   89  HIS89       0.0817
     33  ND1       18.9270   36.1400    0.8410 N.ar   89  HIS89      -0.2268
     34  CD2       19.3270   37.5730    2.4400 C.ar   89  HIS89       0.1154
     35  CE1       18.4620   35.6120    1.9620 C.ar   89  HIS89       0.1986
     36  NE2       18.6910   36.4610    2.9470 N.ar   89  HIS89      -0.2212
     37  N         14.6840   38.6240   -3.3590 N.3   139  LEU139     -0.1245
     38  CA        13.7270   37.8810   -2.5460 C.3   139  LEU139      0.1561
     39  C         13.2330   38.8830   -1.4990 C.2   139  LEU139      0.2260
     40  O         14.0030   39.3230   -0.6420 O.2   139  LEU139     -0.2867
     41  CB        14.4360   36.7100   -1.8550 C.3   139  LEU139      0.0270
     42  CG        13.6390   35.8470   -0.8750 C.3   139  LEU139      0.0019
     43  CD1       12.4310   35.2400   -1.5790 C.3   139  LEU139      0.0001
     44  CD2       14.5530   34.7520   -0.3180 C.3   139  LEU139      0.0001
     45  N         24.1450   25.0610    6.7520 N.3   172  ARG172     -0.1245
     46  CA        22.8540   25.0770    6.0860 C.3   172  ARG172      0.1563
     47  C         22.9780   26.2510    5.1160 C.2   172  ARG172      0.2260
     48  O         23.3080   27.3580    5.5390 O.2   172  ARG172     -0.2867
     49  CB        21.7270   25.3510    7.0870 C.3   172  ARG172      0.0307
     50  CG        20.3670   25.5190    6.4250 C.3   172  ARG172      0.0489
     51  CD        19.2920   25.9380    7.4070 C.3   172  ARG172      0.2205
     52  NE        17.9550   26.0220    6.8070 N.pl3 172  ARG172     -0.0865
     53  CZ        17.4260   27.1330    6.2950 C.cat 172  ARG172      0.5346
     54  NH1       18.1140   28.2720    6.2800 N.pl3 172  ARG172      0.1354
     55  NH2       16.1760   27.1240    5.8540 N.pl3 172  ARG172      0.1354
     56  N         21.2200   28.7460    3.2630 N.3   174  ASP174     -0.1225
     57  CA        19.9050   29.3600    3.1980 C.3   174  ASP174      0.1805
     58  C         19.5940   29.9060    1.7990 C.2   174  ASP174      0.2597
     59  O         20.4720   30.4310    1.1250 O.2   174  ASP174     -0.2718
     60  CB        19.8410   30.4940    4.2150 C.3   174  ASP174      0.1424
     61  CG        18.5070   31.2110    4.2080 C.2   174  ASP174      0.3668
     62  OD1       17.5220   30.6440    4.7210 O.co2 174  ASP174     -0.2456
     63  OD2       18.4430   32.3490    3.6940 O.co2 174  ASP174     -0.2456
     64  N         18.3350   29.7730    1.3830 N.am  175  ALA175     -0.1979
     65  CA        17.8540   30.2760    0.0900 C.3   175  ALA175      0.1597
     66  C         18.6650   29.7790   -1.1170 C.2   175  ALA175      0.2287
     67  O         18.9250   30.5450   -2.0480 O.2   175  ALA175     -0.2864
     68  CB        17.8170   31.8240    0.1230 C.3   175  ALA175      0.0319
     69  N         17.6450   30.2970   -4.8710 N.3   178  HIS178     -0.1241
     70  CA        17.8610   31.6150   -5.4450 C.3   178  HIS178      0.1621
     71  C         19.2940   31.8430   -5.9070 C.2   178  HIS178      0.2264
     72  O         19.6540   32.9410   -6.3390 O.2   178  HIS178     -0.2867
     73  CB        17.3780   32.6910   -4.4670 C.3   178  HIS178      0.0745
     74  CG        15.9260   32.5490   -4.1020 C.ar  178  HIS178      0.0817
     75  ND1       14.9070   33.0540   -4.8840 N.ar  178  HIS178     -0.2268
     76  CD2       15.3210   31.8940   -3.0800 C.ar  178  HIS178      0.1154
     77  CE1       13.7410   32.7130   -4.3650 C.ar  178  HIS178      0.1986
     78  NE2       13.9640   32.0060   -3.2710 N.ar  178  HIS178     -0.2212
     79  N         18.7900   24.5280    1.4560 N.3   200  GLU200     -0.1245
     80  CA        17.3650   24.7800    1.5460 C.3   200  GLU200      0.1567
     81  C         16.7790   25.0780    0.1640 C.2   200  GLU200      0.2260
     82  O         17.0090   26.1460   -0.4210 O.2   200  GLU200     -0.2867
     83  CB        17.0570   25.9510    2.4880 C.3   200  GLU200      0.0388
     84  CG        15.5680   26.1310    2.7090 C.3   200  GLU200      0.1160
     85  CD        15.1450   27.5730    2.8200 C.2   200  GLU200      0.3649
     86  OE1       15.8930   28.4510    2.3660 O.co2 200  GLU200     -0.2457
     87  OE2       14.0550   27.8340    3.3610 O.co2 200  GLU200     -0.2457
     88  N         12.9660   24.6480   -1.6060 N.3   202  ILE202     -0.1245
     89  CA        11.5580   24.2690   -1.5080 C.3   202  ILE202      0.1561
     90  C         11.0560   23.8980   -2.9020 C.2   202  ILE202      0.2260
     91  O         10.9050   24.7600   -3.7650 O.2   202  ILE202     -0.2867
     92  CB        10.6870   25.4070   -0.9380 C.3   202  ILE202      0.0252
     93  CG1       11.1860   25.7820    0.4570 C.3   202  ILE202      0.0019
     94  CG2        9.2280   24.9780   -0.8940 C.3   202  ILE202      0.0019
     95  CD1       10.4460   26.9210    1.1110 C.3   202  ILE202      0.0001
     96  N         11.2060   26.0550   11.1570 N.3   263  HIS263     -0.1226
     97  CA        10.8590   27.4020   11.6150 C.3   263  HIS263      0.1752
     98  C         10.0080   28.2510   10.6600 C.2   263  HIS263      0.2596
     99  O          9.2490   29.1220   11.1140 O.2   263  HIS263     -0.2718
    100  CB        12.1210   28.1690   12.0450 C.3   263  HIS263      0.0759
    101  CG        12.9180   28.7270   10.9060 C.ar  263  HIS263      0.0818
    102  ND1       13.7500   27.9520   10.1240 N.ar  263  HIS263     -0.2268
    103  CD2       13.0050   29.9860   10.4130 C.ar  263  HIS263      0.1154
    104  CE1       14.3100   28.7070    9.1970 C.ar  263  HIS263      0.1986
    105  NE2       13.8730   29.9470    9.3510 N.ar  263  HIS263     -0.2212
    106  N         10.1570   28.0140    9.3540 N.am  264  ASP264     -0.1974
    107  CA         9.3980   28.7280    8.3240 C.3   264  ASP264      0.1709
    108  C          7.9900   28.1750    8.1600 C.2   264  ASP264      0.2293
    109  O          7.0100   28.9150    8.2770 O.2   264  ASP264     -0.2864
    110  CB        10.0790   28.6250    6.9500 C.3   264  ASP264      0.1436
    111  CG        11.1600   29.6710    6.7330 C.2   264  ASP264      0.3671
    112  OD1       10.9960   30.8330    7.1730 O.co2 264  ASP264     -0.2456
    113  OD2       12.1710   29.3200    6.0900 O.co2 264  ASP264     -0.2456
    114  N          5.0300   29.7390    6.0190 N.3   269  HIS269     -0.1241
    115  CA         5.9050   30.0790    4.8930 C.3   269  HIS269      0.1621
    116  C          6.4310   28.7610    4.3180 C.2   269  HIS269      0.2264
    117  O          7.2920   28.1220    4.9180 O.2   269  HIS269     -0.2867
    118  CB         7.1090   30.9320    5.3390 C.3   269  HIS269      0.0745
    119  CG         6.7500   32.2970    5.8580 C.ar  269  HIS269      0.0817
    120  ND1        6.3260   33.3240    5.0380 N.ar  269  HIS269     -0.2268
    121  CD2        6.7820   32.8090    7.1120 C.ar  269  HIS269      0.1154
    122  CE1        6.1100   34.4070    5.7640 C.ar  269  HIS269      0.1986
    123  NE2        6.3790   34.1220    7.0250 N.ar  269  HIS269     -0.2212
@<TRIPOS>BOND
     1    72    71    2
     2    71    70    1
     3    70    69    1
     4    70    73    1
     5    75    77   ar
     6    75    74   ar
     7    73    74    1
     8    77    78   ar
     9    74    76   ar
    10    91    90    2
    11    37    38    1
    12    78    76   ar
    13    90    89    1
    14    38    41    1
    15    38    39    1
    16    67    66    2
    17    41    42    1
    18    88    89    1
    19    43    42    1
    20    89    92    1
    21    39    40    2
    22    66    65    1
    23    92    94    1
    24    92    93    1
    25    42    44    1
    26    82    81    2
    27    27    28    1
    28    28    31    1
    29    28    29    1
    30    31    32    1
    31    65    68    1
    32    65    64    1
    33    81    80    1
    34    93    95    1
    35    33    32   ar
    36    33    35   ar
    37    32    34   ar
    38    59    58    2
    39    29    30    2
    40    64    58   am
    41    79    80    1
    42    80    83    1
    43    58    57    1
    44    35    36   ar
    45    86    85   ar
    46    34    36   ar
    47    83    84    1
    48    84    85    1
    49    85    87   ar
    50    57    56    1
    51    57    60    1
    52    63    61   ar
    53    61    60    1
    54    61    62   ar
    55   116   115    1
    56   116   117    2
    57   115   118    1
    58   115   114    1
    59   120   122   ar
    60   120   119   ar
    61    47    48    2
    62    47    46    1
    63   118   119    1
    64    18    17    2
    65   122   123   ar
    66    55    53    1
    67   119   121   ar
    68    46    45    1
    69    46    49    1
    70   113   111   ar
    71    54    53    1
    72    53    52    2
    73    50    49    1
    74    50    51    1
    75   111   110    1
    76   111   112   ar
    77    52    51    1
    78    17    16    1
    79   110   107    1
    80   123   121   ar
    81    19    16    1
    82    19    20    1
    83    22    20   ar
    84    22    24   ar
    85    16    15    1
    86    20    21   ar
    87    24    25   ar
    88   108   109    2
    89   108   107    1
    90   107   106    1
    91   104   105   ar
    92   104   102   ar
    93    21    23   ar
    94    25    23   ar
    95    25    26    1
    96   105   103   ar
    97   106    98   am
    98    14    12   ar
    99    14    13   ar
   100   102   101   ar
   101    12    10   ar
   102    13    11   ar
   103   103   101   ar
   104    98    99    2
   105    98    97    1
   106   101   100    1
   107    96    97    1
   108    10     8   ar
   109    10     9   ar
   110    11     8   ar
   111    97   100    1
   112     8     6   ar
   113     9     7   ar
   114     4     3    2
   115     3     2    1
   116     6     7   ar
   117     6     5    1
   118     2     5    1
   119     2     1    1
