@<TRIPOS>MOLECULE
tmp/1aquB01.pdb
 202 193 0 0 0
SMALL
GASTEIGER

@<TRIPOS>ATOM
      1  N         21.0840   30.8450   32.8890 N.3    15  ASP15      -0.1239
      2  CA        20.4990   30.9210   34.2330 C.3    15  ASP15       0.1674
      3  C         21.7240   30.7820   35.1590 C.2    15  ASP15       0.2266
      4  O         22.4700   29.8050   35.0720 O.2    15  ASP15      -0.2867
      5  CB        19.5310   29.7420   34.4340 C.3    15  ASP15       0.1410
      6  CG        18.8020   29.7780   35.7860 C.2    15  ASP15       0.3668
      7  OD1       19.4110   30.1970   36.8010 O.co2  15  ASP15      -0.2456
      8  OD2       17.6150   29.3740   35.8320 O.co2  15  ASP15      -0.2456
      9  N         22.0720   29.8670   38.1160 N.3    17  ARG17      -0.1231
     10  CA        22.0860   28.6760   38.9520 C.3    17  ARG17       0.1694
     11  C         22.7950   27.5140   38.2440 C.2    17  ARG17       0.2592
     12  O         23.3230   26.6030   38.9030 O.2    17  ARG17      -0.2718
     13  CB        20.6500   28.2730   39.3240 C.3    17  ARG17       0.0321
     14  CG        19.9570   29.2130   40.3240 C.3    17  ARG17       0.0489
     15  CD        18.4620   28.8670   40.4760 C.3    17  ARG17       0.2205
     16  NE        17.6760   29.2340   39.2890 N.pl3  17  ARG17      -0.0865
     17  CZ        16.3800   29.5400   39.2990 C.cat  17  ARG17       0.5346
     18  NH1       15.6950   29.5300   40.4360 N.pl3  17  ARG17       0.1354
     19  NH2       15.7690   29.8670   38.1670 N.pl3  17  ARG17       0.1354
     20  N         22.8080   27.5440   36.9060 N.am   18  PHE18      -0.1976
     21  CA        23.4480   26.4990   36.1010 C.3    18  PHE18       0.1639
     22  C         24.9420   26.7780   35.8210 C.2    18  PHE18       0.2290
     23  O         25.6430   25.9160   35.2680 O.2    18  PHE18      -0.2864
     24  CB        22.7390   26.3260   34.7360 C.3    18  PHE18       0.0560
     25  CG        21.2730   25.9420   34.8170 C.ar   18  PHE18      -0.0200
     26  CD1       20.6580   25.6390   36.0320 C.ar   18  PHE18      -0.0042
     27  CD2       20.5040   25.9000   33.6520 C.ar   18  PHE18      -0.0042
     28  CE1       19.2940   25.3050   36.0840 C.ar   18  PHE18      -0.0003
     29  CE2       19.1440   25.5710   33.6850 C.ar   18  PHE18      -0.0003
     30  CZ        18.5370   25.2710   34.9010 C.ar   18  PHE18      -0.0000
     31  N         16.0320   24.9260   23.5110 N.3    41  PRO41      -0.2102
     32  CA        14.7580   24.8240   24.2450 C.3    41  PRO41       0.1504
     33  C         13.4510   24.8950   23.4190 C.2    41  PRO41       0.2575
     34  O         13.3220   25.7030   22.4850 O.2    41  PRO41      -0.2718
     35  CB        14.8250   25.9720   25.2570 C.3    41  PRO41       0.0282
     36  CG        16.2890   26.2120   25.4640 C.3    41  PRO41       0.0208
     37  CD        16.9750   25.8600   24.1520 C.3    41  PRO41       0.0893
     38  N         12.4980   24.0400   23.7960 N.am   42  LYS42      -0.1980
     39  CA        11.1550   23.9680   23.2030 C.3    42  LYS42       0.1596
     40  C         11.0580   23.4960   21.7510 C.2    42  LYS42       0.2287
     41  O         10.1680   23.9280   21.0080 O.2    42  LYS42      -0.2864
     42  CB        10.4340   25.3240   23.3550 C.3    42  LYS42       0.0298
     43  CG        10.5970   26.0230   24.7240 C.3    42  LYS42       0.0038
     44  CD        10.3760   25.0800   25.9140 C.3    42  LYS42       0.0206
     45  CE         8.9130   24.6740   26.0560 C.3    42  LYS42       0.1093
     46  NZ         8.7430   23.5820   27.0460 N.3    42  LYS42      -0.1314
     47  N         12.1780   18.1840   22.6970 N.3    45  THR45      -0.1218
     48  CA        13.0670   17.3470   23.5030 C.3    45  THR45       0.1862
     49  C         12.3500   16.1890   24.1960 C.2    45  THR45       0.2287
     50  O         12.7970   15.0440   24.1210 O.2    45  THR45      -0.2866
     51  CB        13.7720   18.1770   24.6000 C.3    45  THR45       0.1770
     52  OG1       14.0660   19.4890   24.1060 O.3    45  THR45      -0.2211
     53  CG2       15.0570   17.5030   25.0380 C.3    45  THR45       0.0375
     54  N         18.9620   15.6060   33.0460 N.3    68  TYR68      -0.1241
     55  CA        19.2380   16.8740   32.3680 C.3    68  TYR68       0.1605
     56  C         20.6160   17.3310   32.8920 C.2    68  TYR68       0.2264
     57  O         20.7320   17.9230   33.9660 O.2    68  TYR68      -0.2867
     58  CB        18.1000   17.8380   32.7400 C.3    68  TYR68       0.0534
     59  CG        18.0820   19.2560   32.1890 C.ar   68  TYR68      -0.0201
     60  CD1       19.1270   19.7770   31.4200 C.ar   68  TYR68      -0.0009
     61  CD2       17.0190   20.1110   32.5160 C.ar   68  TYR68      -0.0009
     62  CE1       19.1120   21.1210   31.0020 C.ar   68  TYR68       0.0417
     63  CE2       16.9940   21.4380   32.1080 C.ar   68  TYR68       0.0417
     64  CZ        18.0430   21.9460   31.3550 C.ar   68  TYR68       0.1957
     65  OH        18.0130   23.2840   31.0010 O.3    68  TYR68      -0.2866
     66  N         21.4390   20.9670   34.4910 N.3    71  CYS71      -0.1235
     67  CA        20.4210   21.5000   35.4080 C.3    71  CYS71       0.1677
     68  C         20.9150   21.4040   36.8600 C.2    71  CYS71       0.2270
     69  O         21.3610   20.3490   37.3050 O.2    71  CYS71      -0.2867
     70  CB        19.1020   20.7320   35.2540 C.3    71  CYS71       0.0956
     71  SG        17.6750   21.5710   36.0230 S.3    71  CYS71      -0.0801
     72  N         20.1380   23.3380   40.9680 N.3    73  ASN73      -0.1240
     73  CA        19.5010   24.3050   41.8800 C.3    73  ASN73       0.1653
     74  C         20.0280   23.9180   43.2680 C.2    73  ASN73       0.2266
     75  O         19.3760   23.1940   44.0270 O.2    73  ASN73      -0.2867
     76  CB        17.9630   24.2140   41.8440 C.3    73  ASN73       0.1155
     77  CG        17.2840   25.5320   42.2430 C.2    73  ASN73       0.2627
     78  OD1       17.8710   26.3560   42.9510 O.2    73  ASN73      -0.2716
     79  ND2       16.0500   25.7360   41.7850 N.am   73  ASN73      -0.0877
     80  N         18.3840   20.0170   43.2970 N.3    77  ILE77      -0.1245
     81  CA        18.4210   19.4450   41.9420 C.3    77  ILE77       0.1561
     82  C         19.8730   19.4460   41.4530 C.2    77  ILE77       0.2260
     83  O         20.5400   20.4750   41.5110 O.2    77  ILE77      -0.2867
     84  CB        17.5510   20.2730   40.9370 C.3    77  ILE77       0.0252
     85  CG1       16.0800   20.2460   41.3570 C.3    77  ILE77       0.0019
     86  CG2       17.6840   19.7000   39.5110 C.3    77  ILE77       0.0019
     87  CD1       15.2020   21.2050   40.5680 C.3    77  ILE77       0.0001
     88  N         20.4320   14.2280   28.5560 N.3    93  LYS93      -0.1245
     89  CA        19.7390   15.3760   27.9550 C.3    93  LYS93       0.1561
     90  C         20.5190   16.6820   28.1740 C.2    93  LYS93       0.2260
     91  O         21.0900   16.8890   29.2540 O.2    93  LYS93      -0.2867
     92  CB        18.3220   15.5360   28.5470 C.3    93  LYS93       0.0271
     93  CG        17.7410   16.9430   28.3670 C.3    93  LYS93       0.0035
     94  CD        16.3750   17.1100   29.0190 C.3    93  LYS93       0.0206
     95  CE        15.8900   18.5490   28.9200 C.3    93  LYS93       0.1093
     96  NZ        14.5880   18.7410   29.5920 N.3    93  LYS93      -0.1314
     97  N         20.8330   21.1950   26.6130 N.3    95  HIS95      -0.1241
     98  CA        20.4070   22.3170   25.7550 C.3    95  HIS95       0.1621
     99  C         21.6410   23.1660   25.3610 C.2    95  HIS95       0.2264
    100  O         21.5020   24.2340   24.7640 O.2    95  HIS95      -0.2867
    101  CB        19.3950   23.2380   26.4690 C.3    95  HIS95       0.0745
    102  CG        18.0290   22.6420   26.6510 C.ar   95  HIS95       0.0817
    103  ND1       17.3680   21.9500   25.6570 N.ar   95  HIS95      -0.2268
    104  CD2       17.1920   22.6490   27.7190 C.ar   95  HIS95       0.1154
    105  CE1       16.1870   21.5560   26.1030 C.ar   95  HIS95       0.1986
    106  NE2       16.0550   21.9690   27.3520 N.ar   95  HIS95      -0.2212
    107  N          6.7400   29.3320   28.0320 N.3   129  PHE129     -0.1241
    108  CA         7.5690   28.6510   29.0200 C.3   129  PHE129      0.1605
    109  C          8.0470   29.6290   30.0940 C.2   129  PHE129      0.2264
    110  O          8.0990   29.2730   31.2710 O.2   129  PHE129     -0.2867
    111  CB         8.7680   27.9670   28.3490 C.3   129  PHE129      0.0534
    112  CG         9.4810   26.9760   29.2410 C.ar  129  PHE129     -0.0203
    113  CD1        8.8350   25.8180   29.6810 C.ar  129  PHE129     -0.0042
    114  CD2       10.8010   27.1920   29.6250 C.ar  129  PHE129     -0.0042
    115  CE1        9.4910   24.8830   30.4880 C.ar  129  PHE129     -0.0003
    116  CE2       11.4720   26.2690   30.4340 C.ar  129  PHE129     -0.0003
    117  CZ        10.8160   25.1120   30.8650 C.ar  129  PHE129     -0.0000
    118  N          7.4590   29.1460   34.2300 N.3   133  ILE133     -0.1245
    119  CA         8.5010   29.0930   35.2610 C.3   133  ILE133      0.1561
    120  C          8.3510   30.2550   36.2680 C.2   133  ILE133      0.2260
    121  O          8.5360   31.4320   35.9240 O.2   133  ILE133     -0.2867
    122  CB         9.9160   29.1020   34.6100 C.3   133  ILE133      0.0252
    123  CG1       10.0240   27.9530   33.5910 C.3   133  ILE133      0.0019
    124  CG2       10.9950   28.9450   35.6820 C.3   133  ILE133      0.0019
    125  CD1        9.8330   26.5500   34.1760 C.3   133  ILE133      0.0001
    126  N         10.1760   31.4200   38.8070 N.3   135  SER135     -0.1202
    127  CA        11.3160   32.3090   39.0620 C.3   135  SER135      0.2020
    128  C         11.8320   33.0890   37.8480 C.2   135  SER135      0.2618
    129  O         12.8110   33.8270   37.9620 O.2   135  SER135     -0.2717
    130  CB        12.4760   31.5300   39.6930 C.3   135  SER135      0.2103
    131  OG        12.8240   30.3960   38.9220 O.3   135  SER135     -0.2182
    132  N         11.1770   32.9460   36.6960 N.am  136  TYR136     -0.1975
    133  CA        11.5900   33.6720   35.4870 C.3   136  TYR136      0.1639
    134  C         10.6420   34.8520   35.2770 C.2   136  TYR136      0.2290
    135  O          9.4310   34.6690   35.2340 O.2   136  TYR136     -0.2864
    136  CB        11.5360   32.7490   34.2590 C.3   136  TYR136      0.0560
    137  CG        12.6800   31.7640   34.1290 C.ar  136  TYR136     -0.0198
    138  CD1       13.7100   31.7170   35.0710 C.ar  136  TYR136     -0.0009
    139  CD2       12.7410   30.8870   33.0470 C.ar  136  TYR136     -0.0009
    140  CE1       14.7750   30.8240   34.9330 C.ar  136  TYR136      0.0417
    141  CE2       13.8010   29.9910   32.8970 C.ar  136  TYR136      0.0417
    142  CZ        14.8150   29.9660   33.8410 C.ar  136  TYR136      0.1957
    143  OH        15.8670   29.0980   33.6790 O.3   136  TYR136     -0.2866
    144  N         20.1440   30.3070   27.0160 N.3   156  TYR156     -0.1241
    145  CA        20.8480   29.4300   26.0670 C.3   156  TYR156      0.1605
    146  C         21.2850   30.1530   24.7740 C.2   156  TYR156      0.2264
    147  O         21.7940   29.5310   23.8300 O.2   156  TYR156     -0.2867
    148  CB        20.0380   28.1480   25.7810 C.3   156  TYR156      0.0534
    149  CG        20.1170   27.1420   26.9310 C.ar  156  TYR156     -0.0201
    150  CD1       21.2580   26.3440   27.1170 C.ar  156  TYR156     -0.0009
    151  CD2       19.0700   27.0130   27.8480 C.ar  156  TYR156     -0.0009
    152  CE1       21.3540   25.4310   28.1940 C.ar  156  TYR156      0.0417
    153  CE2       19.1470   26.1050   28.9330 C.ar  156  TYR156      0.0417
    154  CZ        20.2870   25.3170   29.0980 C.ar  156  TYR156      0.1957
    155  OH        20.3450   24.3870   30.1250 O.3   156  TYR156     -0.2866
    156  N          5.0810   16.4840   32.9140 N.3   227  TYR227     -0.1241
    157  CA         5.6990   17.3230   33.9540 C.3   227  TYR227      0.1605
    158  C          4.8400   17.6800   35.1760 C.2   227  TYR227      0.2264
    159  O          5.1130   18.6760   35.8500 O.2   227  TYR227     -0.2867
    160  CB         6.2760   18.6140   33.3330 C.3   227  TYR227      0.0534
    161  CG         7.6450   18.3890   32.7320 C.ar  227  TYR227     -0.0201
    162  CD1        7.7850   17.7040   31.5270 C.ar  227  TYR227     -0.0009
    163  CD2        8.8060   18.7530   33.4150 C.ar  227  TYR227     -0.0009
    164  CE1        9.0390   17.3670   31.0190 C.ar  227  TYR227      0.0417
    165  CE2       10.0730   18.4220   32.9170 C.ar  227  TYR227      0.0417
    166  CZ        10.1750   17.7240   31.7180 C.ar  227  TYR227      0.1957
    167  OH        11.4050   17.3410   31.2190 O.3   227  TYR227     -0.2866
    168  N          6.4760   17.4640   38.7060 N.3   230  MET230     -0.1245
    169  CA         7.3350   18.5670   39.1220 C.3   230  MET230      0.1570
    170  C          6.4290   19.5950   39.8150 C.2   230  MET230      0.2261
    171  O          5.4320   20.0280   39.2400 O.2   230  MET230     -0.2867
    172  CB         8.0230   19.1860   37.8990 C.3   230  MET230      0.0387
    173  CG         8.9190   20.3860   38.2070 C.3   230  MET230      0.0595
    174  SD        10.5360   19.9570   38.9420 S.3   230  MET230     -0.1393
    175  CE        11.1630   18.7720   37.7590 C.3   230  MET230      0.0692
    176  N          7.4660   25.4880   41.3340 N.3   234  MET234     -0.1230
    177  CA         8.5710   25.6820   40.3970 C.3   234  MET234      0.1702
    178  C          8.0610   25.9290   38.9740 C.2   234  MET234      0.2592
    179  O          8.5140   26.8560   38.2890 O.2   234  MET234     -0.2718
    180  CB         9.4790   24.4540   40.4070 C.3   234  MET234      0.0401
    181  CG        10.1990   24.2270   41.7280 C.3   234  MET234      0.0596
    182  SD        11.5100   23.0170   41.5310 S.3   234  MET234     -0.1393
    183  CE        12.7280   23.6750   42.6700 C.3   234  MET234      0.0692
    184  N          7.1170   25.0910   38.5460 N.am  235  MET235     -0.1979
    185  CA         6.5200   25.1800   37.2090 C.3   235  MET235      0.1605
    186  C          5.0100   25.1570   37.3720 C.2   235  MET235      0.2287
    187  O          4.4320   24.0990   37.6050 O.2   235  MET235     -0.2864
    188  CB         6.9490   23.9820   36.3370 C.3   235  MET235      0.0413
    189  CG         8.4580   23.7300   36.2790 C.3   235  MET235      0.0598
    190  SD         8.9560   22.2690   35.2980 S.3   235  MET235     -0.1393
    191  CE         7.5770   22.1220   34.1450 C.3   235  MET235      0.0692
    192  N          2.5110   22.2390   30.0410 N.3   242  PHE242     -0.1241
    193  CA         3.7020   21.8320   29.2870 C.3   242  PHE242      0.1605
    194  C          3.2860   21.3190   27.9000 C.2   242  PHE242      0.2264
    195  O          3.8350   21.7520   26.8810 O.2   242  PHE242     -0.2867
    196  CB         4.4860   20.7590   30.0520 C.3   242  PHE242      0.0534
    197  CG         5.9130   20.5950   29.5800 C.ar  242  PHE242     -0.0203
    198  CD1        6.2240   19.6990   28.5580 C.ar  242  PHE242     -0.0042
    199  CD2        6.9430   21.3490   30.1460 C.ar  242  PHE242     -0.0042
    200  CE1        7.5400   19.5530   28.0980 C.ar  242  PHE242     -0.0003
    201  CE2        8.2640   21.2100   29.6930 C.ar  242  PHE242     -0.0003
    202  CZ         8.5570   20.3060   28.6630 C.ar  242  PHE242     -0.0000
@<TRIPOS>BOND
     1    41    40    2
     2    40    39    1
     3    34    33    2
     4    47    48    1
     5    39    42    1
     6    39    38    1
     7    42    43    1
     8    33    38   am
     9    33    32    1
    10    48    49    1
    11    48    51    1
    12    31    37    1
    13    31    32    1
    14   147   146    2
    15    52    51    1
    16    50    49    2
    17    37    36    1
    18    32    35    1
    19    51    53    1
    20    43    44    1
    21   100    99    2
    22   146   145    1
    23    35    36    1
    24    99    98    1
    25   103   105   ar
    26   103   102   ar
    27    98   101    1
    28    98    97    1
    29   148   145    1
    30   148   149    1
    31    44    45    1
    32    45    46    1
    33   145   144    1
    34   105   106   ar
    35   101   102    1
    36   102   104   ar
    37   195   194    2
    38   149   150   ar
    39   149   151   ar
    40   150   152   ar
    41   106   104   ar
    42   151   153   ar
    43   194   193    1
    44    89    90    1
    45    89    92    1
    46    89    88    1
    47   107   108    1
    48   200   198   ar
    49   200   202   ar
    50    90    91    2
    51   152   154   ar
    52   111   108    1
    53   111   112    1
    54    93    92    1
    55    93    94    1
    56   198   197   ar
    57   202   201   ar
    58    95    94    1
    59    95    96    1
    60   153   154   ar
    61   108   109    1
    62   154   155    1
    63   112   114   ar
    64   112   113   ar
    65   193   192    1
    66   193   196    1
    67   197   196    1
    68   197   199   ar
    69   114   116   ar
    70   113   115   ar
    71   201   199   ar
    72   109   110    2
    73   116   117   ar
    74   115   117   ar
    75    65    64    1
    76    62    64   ar
    77    62    60   ar
    78   164   162   ar
    79   164   166   ar
    80   167   166    1
    81    64    63   ar
    82    60    59   ar
    83   162   161   ar
    84   166   165   ar
    85    63    61   ar
    86    59    61   ar
    87    59    58    1
    88    55    58    1
    89    55    56    1
    90    55    54    1
    91   161   160    1
    92   161   163   ar
    93     1     2    1
    94    56    57    2
    95   141   139   ar
    96   141   142   ar
    97   156   157    1
    98   165   163   ar
    99   139   137   ar
   100   160   157    1
   101   123   125    1
   102   123   122    1
   103    27    29   ar
   104    27    25   ar
   105   143   142    1
   106    29    30   ar
   107   142   140   ar
   108   157   158    1
   109   137   136    1
   110   137   138   ar
   111   191   190    1
   112   118   119    1
   113     2     5    1
   114     2     3    1
   115   136   133    1
   116     5     6    1
   117    66    67    1
   118   122   119    1
   119   122   124    1
   120    24    25    1
   121    24    21    1
   122    25    26   ar
   123    30    28   ar
   124   140   138   ar
   125     4     3    2
   126   158   159    2
   127   135   134    2
   128    70    67    1
   129    70    71    1
   130   119   120    1
   131    23    22    2
   132   134   133    1
   133   190   189    1
   134    67    68    1
   135   133   132    1
   136     6     8   ar
   137     6     7   ar
   138    22    21    1
   139   121   120    2
   140    26    28   ar
   141    21    20    1
   142   189   188    1
   143   188   185    1
   144   132   128   am
   145    68    69    2
   146    20    11   am
   147   185   186    1
   148   185   184    1
   149   186   187    2
   150   175   174    1
   151   128   129    2
   152   128   127    1
   153   172   173    1
   154   172   169    1
   155     9    10    1
   156    19    17    1
   157   173   174    1
   158    11    12    2
   159    11    10    1
   160   179   178    2
   161   184   178   am
   162   168   169    1
   163   126   127    1
   164   131   130    1
   165    10    13    1
   166   178   177    1
   167   127   130    1
   168   169   170    1
   169   171   170    2
   170    16    17    2
   171    16    15    1
   172    17    18    1
   173    13    14    1
   174    86    84    1
   175    14    15    1
   176   177   180    1
   177   177   176    1
   178   180   181    1
   179    87    85    1
   180    84    85    1
   181    84    81    1
   182    72    73    1
   183    82    83    2
   184    82    81    1
   185   182   181    1
   186   182   183    1
   187    79    77   am
   188    76    73    1
   189    76    77    1
   190    73    74    1
   191    81    80    1
   192    77    78    2
   193    74    75    2
