@<TRIPOS>MOLECULE
tmp/1aqxC00.pdb
 167 161 0 0 0
SMALL
GASTEIGER

@<TRIPOS>ATOM
      1  N         38.2320    3.5240   32.9800 N.3     6  TYR6       -0.1227
      2  CA        38.1280    2.4650   33.9570 C.3     6  TYR6        0.1736
      3  C         37.1630    1.4570   33.3740 C.2     6  TYR6        0.2595
      4  O         36.4580    1.7420   32.4050 O.2     6  TYR6       -0.2718
      5  CB        37.5590    3.0460   35.2670 C.3     6  TYR6        0.0548
      6  CG        37.6080    2.1390   36.4760 C.ar    6  TYR6       -0.0200
      7  CD1       38.7500    1.3970   36.7770 C.ar    6  TYR6       -0.0009
      8  CD2       36.5100    2.0320   37.3280 C.ar    6  TYR6       -0.0009
      9  CE1       38.7950    0.5740   37.8900 C.ar    6  TYR6        0.0417
     10  CE2       36.5460    1.2140   38.4410 C.ar    6  TYR6        0.0417
     11  CZ        37.6890    0.4860   38.7200 C.ar    6  TYR6        0.1957
     12  OH        37.7200   -0.3270   39.8320 O.3     6  TYR6       -0.2866
     13  N         37.1060    0.2970   34.0110 N.am    7  PHE7       -0.1976
     14  CA        36.2430   -0.7900   33.5840 C.3     7  PHE7        0.1639
     15  C         34.7770   -0.4770   33.8960 C.2     7  PHE7        0.2290
     16  O         34.4660    0.5420   34.5160 O.2     7  PHE7       -0.2864
     17  CB        36.7220   -2.0830   34.2600 C.3     7  PHE7        0.0560
     18  CG        38.2130   -2.3270   34.1050 C.ar    7  PHE7       -0.0200
     19  CD1       38.7940   -2.3960   32.8400 C.ar    7  PHE7       -0.0042
     20  CD2       39.0330   -2.4560   35.2200 C.ar    7  PHE7       -0.0042
     21  CE1       40.1630   -2.5880   32.6870 C.ar    7  PHE7       -0.0003
     22  CE2       40.4010   -2.6470   35.0810 C.ar    7  PHE7       -0.0003
     23  CZ        40.9690   -2.7130   33.8050 C.ar    7  PHE7       -0.0000
     24  N         32.5710   -0.9080   36.1750 N.3     9  VAL9       -0.1245
     25  CA        32.1860   -1.2090   37.5450 C.3     9  VAL9        0.1561
     26  C         32.3870    0.0610   38.3660 C.2     9  VAL9        0.2260
     27  O         32.9190    1.0460   37.8610 O.2     9  VAL9       -0.2867
     28  CB        33.0580   -2.3540   38.1520 C.3     9  VAL9        0.0252
     29  CG1       33.1440   -3.5240   37.1820 C.3     9  VAL9        0.0019
     30  CG2       34.4450   -1.8410   38.4800 C.3     9  VAL9        0.0019
     31  N         33.9620   -0.1130   41.3740 N.3    11  GLY11      -0.1210
     32  CA        35.2400   -0.3800   42.0140 C.3    11  GLY11       0.1956
     33  C         35.8750    0.7490   42.8110 C.2    11  GLY11       0.2611
     34  O         35.2560    1.3290   43.7090 O.2    11  GLY11      -0.2717
     35  N         37.1250    1.0510   42.4700 N.am   12  ARG12      -0.1979
     36  CA        37.9100    2.0940   43.1200 C.3    12  ARG12       0.1597
     37  C         37.5560    3.5070   42.6460 C.2    12  ARG12       0.2287
     38  O         38.1360    4.4830   43.1160 O.2    12  ARG12      -0.2864
     39  CB        39.4040    1.8470   42.8660 C.3    12  ARG12       0.0334
     40  CG        40.2170    1.4780   44.1000 C.3    12  ARG12       0.0492
     41  CD        41.3190    0.4870   43.7640 C.3    12  ARG12       0.2205
     42  NE        41.7370   -0.2760   44.9380 N.pl3  12  ARG12      -0.0865
     43  CZ        42.3580    0.2450   45.9930 C.cat  12  ARG12       0.5346
     44  NH1       42.6340    1.5410   46.0320 N.pl3  12  ARG12       0.1354
     45  NH2       42.6990   -0.5310   47.0130 N.pl3  12  ARG12       0.1354
     46  N         36.9160   -5.8130   29.5250 N.3    34  VAL34      -0.1245
     47  CA        38.0010   -6.7280   29.8460 C.3    34  VAL34       0.1561
     48  C         38.6270   -7.3330   28.6140 C.2    34  VAL34       0.2260
     49  O         39.7910   -7.6910   28.6330 O.2    34  VAL34      -0.2867
     50  CB        37.5160   -7.8920   30.7690 C.3    34  VAL34       0.0252
     51  CG1       38.4080   -9.1320   30.5710 C.3    34  VAL34       0.0019
     52  CG2       37.5300   -7.4390   32.2510 C.3    34  VAL34       0.0019
     53  N         40.9150   -4.6930   27.2160 N.3    37  TRP37      -0.1241
     54  CA        42.0730   -4.4470   28.0640 C.3    37  TRP37       0.1605
     55  C         43.1540   -5.5220   27.9000 C.2    37  TRP37       0.2264
     56  O         44.3300   -5.2700   28.1690 O.2    37  TRP37      -0.2867
     57  CB        41.5960   -4.4030   29.5220 C.3    37  TRP37       0.0550
     58  CG        42.6530   -4.1010   30.5410 C.ar   37  TRP37       0.0003
     59  CD1       43.2160   -4.9800   31.4280 C.ar   37  TRP37       0.0946
     60  CD2       43.2180   -2.8160   30.8340 C.ar   37  TRP37       0.0152
     61  NE1       44.0940   -4.3180   32.2600 N.ar   37  TRP37      -0.2442
     62  CE2       44.1140   -2.9900   31.9190 C.ar   37  TRP37       0.0810
     63  CE3       43.0510   -1.5330   30.2870 C.ar   37  TRP37       0.0012
     64  CZ2       44.8430   -1.9250   32.4680 C.ar   37  TRP37       0.0191
     65  CZ3       43.7750   -0.4770   30.8280 C.ar   37  TRP37       0.0001
     66  CH2       44.6630   -0.6810   31.9120 C.ar   37  TRP37       0.0015
     67  N         46.8890   -0.7060   28.2960 N.3    43  LYS43      -0.1245
     68  CA        47.4060   -1.0030   29.6180 C.3    43  LYS43       0.1561
     69  C         48.9010   -0.7360   29.6270 C.2    43  LYS43       0.2260
     70  O         49.4740   -0.3860   30.6600 O.2    43  LYS43      -0.2867
     71  CB        47.1460   -2.4680   29.9470 C.3    43  LYS43       0.0271
     72  CG        47.6840   -2.9150   31.2910 C.3    43  LYS43       0.0035
     73  CD        47.2940   -4.3580   31.5610 C.3    43  LYS43       0.0206
     74  CE        48.4350   -5.1380   32.1800 C.3    43  LYS43       0.1093
     75  NZ        48.3360   -5.1110   33.6670 N.3    43  LYS43      -0.1314
     76  N         50.2760    0.2350   34.7260 N.3    49  GLY49      -0.1210
     77  CA        49.7080   -0.9090   34.0380 C.3    49  GLY49       0.1956
     78  C         48.2980   -1.2410   34.4890 C.2    49  GLY49       0.2612
     79  O         47.8410   -2.3740   34.3260 O.2    49  GLY49      -0.2717
     80  N         47.6020   -0.2610   35.0630 N.am   50  GLN50      -0.1965
     81  CA        46.2350   -0.4920   35.5150 C.3    50  GLN50       0.1733
     82  C         45.3730    0.7580   35.5640 C.2    50  GLN50       0.2616
     83  O         45.8480    1.8770   35.3640 O.2    50  GLN50      -0.2715
     84  CB        46.2270   -1.1590   36.8900 C.3    50  GLN50       0.0408
     85  CG        47.5620   -1.2300   37.5910 C.3    50  GLN50       0.0908
     86  CD        47.4450   -1.8060   38.9920 C.2    50  GLN50       0.2608
     87  OE1       47.6290   -1.0970   39.9860 O.2    50  GLN50      -0.2717
     88  NE2       47.1360   -3.0990   39.0790 N.am   50  GLN50      -0.0878
     89  N         44.0920    0.5410   35.8470 N.am   51  LEU51      -0.1964
     90  CA        43.1080    1.6130   35.9300 C.3    51  LEU51       0.1713
     91  C         42.7610    1.8770   37.3940 C.2    51  LEU51       0.2458
     92  O         43.0710    1.0670   38.2630 O.2    51  LEU51      -0.2730
     93  CB        41.8600    1.2270   35.1230 C.3    51  LEU51       0.0310
     94  CG        42.1670    0.9020   33.6530 C.3    51  LEU51       0.0022
     95  CD1       40.8770    0.7650   32.8380 C.3    51  LEU51       0.0001
     96  CD2       43.0390    2.0180   33.0740 C.3    51  LEU51       0.0001
     97  N         42.1040    3.0100   37.6880 N.am   52  PRO52      -0.2727
     98  CA        41.6730    4.0350   36.7360 C.3    52  PRO52       0.1402
     99  C         42.7160    5.0790   36.3510 C.2    52  PRO52       0.2269
    100  O         43.7510    5.2390   37.0080 O.2    52  PRO52      -0.2865
    101  CB        40.5090    4.6890   37.4490 C.3    52  PRO52       0.0296
    102  CG        40.9330    4.6480   38.8950 C.3    52  PRO52       0.0237
    103  CD        41.7220    3.3650   39.0680 C.3    52  PRO52       0.0939
    104  N         46.2860    6.2010   40.0580 N.3    63  GLN63      -0.1231
    105  CA        46.1230    5.9870   41.4990 C.3    63  GLN63       0.1698
    106  C         44.8760    6.7400   41.9560 C.2    63  GLN63       0.2593
    107  O         44.8960    7.9670   42.1250 O.2    63  GLN63      -0.2718
    108  CB        47.3480    6.4910   42.2770 C.3    63  GLN63       0.0381
    109  CG        48.6100    5.6480   42.1320 C.3    63  GLN63       0.0905
    110  CD        48.4420    4.1880   42.5330 C.2    63  GLN63       0.2608
    111  OE1       47.6260    3.8520   43.3730 O.2    63  GLN63      -0.2717
    112  NE2       49.2300    3.3170   41.9270 N.am   63  GLN63      -0.0878
    113  N         43.7960    6.0060   42.1890 N.am   64  SER64      -0.1938
    114  CA        42.5600    6.6750   42.5910 C.3    64  SER64       0.2055
    115  C         42.6820    7.5500   43.8180 C.2    64  SER64       0.2643
    116  O         42.0120    8.5680   43.8870 O.2    64  SER64      -0.2714
    117  CB        41.4060    5.6720   42.8030 C.3    64  SER64       0.2130
    118  OG        41.7510    4.5770   43.6300 O.3    64  SER64      -0.2179
    119  N         43.5870    7.2220   44.7390 N.am   65  ASN65      -0.1971
    120  CA        43.7130    8.0370   45.9380 C.3    65  ASN65       0.1688
    121  C         44.4310    9.3180   45.5920 C.2    65  ASN65       0.2292
    122  O         44.3350   10.3100   46.3220 O.2    65  ASN65      -0.2864
    123  CB        44.4950    7.2920   47.0180 C.3    65  ASN65       0.1181
    124  CG        43.6260    6.3310   47.8130 C.2    65  ASN65       0.2629
    125  OD1       44.0060    5.1800   48.0410 O.2    65  ASN65      -0.2716
    126  ND2       42.4550    6.7980   48.2410 N.am   65  ASN65      -0.0877
    127  N         41.3900    3.2810   53.1860 N.3    96  GLU96      -0.1245
    128  CA        41.9820    2.4850   52.1210 C.3    96  GLU96       0.1567
    129  C         42.6480    1.2100   52.6210 C.2    96  GLU96       0.2260
    130  O         42.7980    0.2490   51.8650 O.2    96  GLU96      -0.2867
    131  CB        43.0170    3.3220   51.3600 C.3    96  GLU96       0.0388
    132  CG        44.0780    2.5060   50.5910 C.3    96  GLU96       0.1160
    133  CD        43.6900    2.2610   49.1410 C.2    96  GLU96       0.3649
    134  OE1       42.8450    3.0130   48.6090 O.co2  96  GLU96      -0.2457
    135  OE2       44.2230    1.3130   48.5300 O.co2  96  GLU96      -0.2457
    136  N         39.2850   -6.1740   49.1650 N.3   103  ILE103     -0.1245
    137  CA        39.4410   -6.4850   47.7590 C.3   103  ILE103      0.1561
    138  C         40.1280   -7.8250   47.5460 C.2   103  ILE103      0.2260
    139  O         39.9900   -8.4370   46.4890 O.2   103  ILE103     -0.2867
    140  CB        40.2190   -5.3580   47.0400 C.3   103  ILE103      0.0252
    141  CG1       39.3240   -4.1210   46.9190 C.3   103  ILE103      0.0019
    142  CG2       40.6440   -5.7980   45.6510 C.3   103  ILE103      0.0019
    143  CD1       40.0830   -2.8410   46.5960 C.3   103  ILE103      0.0001
    144  N         38.4570  -11.3050   45.5950 N.3   107  TYR107     -0.1241
    145  CA        39.1250  -11.7980   44.3950 C.3   107  TYR107      0.1605
    146  C         39.9850  -13.0260   44.6040 C.2   107  TYR107      0.2264
    147  O         40.5180  -13.5660   43.6330 O.2   107  TYR107     -0.2867
    148  CB        39.9660  -10.6850   43.7550 C.3   107  TYR107      0.0534
    149  CG        39.1200   -9.6350   43.0750 C.ar  107  TYR107     -0.0201
    150  CD1       38.6500   -9.8230   41.7760 C.ar  107  TYR107     -0.0009
    151  CD2       38.7020   -8.5000   43.7720 C.ar  107  TYR107     -0.0009
    152  CE1       37.7730   -8.9170   41.1930 C.ar  107  TYR107      0.0417
    153  CE2       37.8240   -7.5840   43.2020 C.ar  107  TYR107      0.0417
    154  CZ        37.3570   -7.8020   41.9130 C.ar  107  TYR107      0.1957
    155  OH        36.4430   -6.9180   41.3730 O.3   107  TYR107     -0.2866
    156  N         31.7870   -4.8360   41.9700 N.3   203  ASN203     -0.1225
    157  CA        33.0860   -5.4210   41.6870 C.3   203  ASN203      0.1785
    158  C         33.1180   -5.9050   40.2340 C.2   203  ASN203      0.2597
    159  O         32.1780   -5.6570   39.4680 O.2   203  ASN203     -0.2718
    160  CB        33.3670   -6.5870   42.6460 C.3   203  ASN203      0.1169
    161  CG        33.1940   -6.1990   44.1230 C.2   203  ASN203      0.2627
    162  OD1       32.1420   -6.4410   44.7220 O.2   203  ASN203     -0.2716
    163  ND2       34.2340   -5.6070   44.7120 N.am  203  ASN203     -0.0877
    164  N         34.1960   -6.5780   39.8520 N.am  204  GLY204     -0.1957
    165  CA        34.2960   -7.0780   38.4980 C.3   204  GLY204      0.1869
    166  C         33.9970   -8.5630   38.3770 C.2   204  GLY204      0.2309
    167  O         33.9420   -9.1050   37.2630 O.2   204  GLY204     -0.2863
@<TRIPOS>BOND
     1    53    54    1
     2    55    54    1
     3    55    56    2
     4    54    57    1
     5    67    68    1
     6    48    49    2
     7    48    47    1
     8    57    58    1
     9    46    47    1
    10    68    69    1
    11    68    71    1
    12    69    70    2
    13    47    50    1
    14    71    72    1
    15    63    65   ar
    16    63    60   ar
    17    58    60   ar
    18    58    59   ar
    19    51    50    1
    20    50    52    1
    21    65    66   ar
    22    60    62   ar
    23    72    73    1
    24    59    61   ar
    25    73    74    1
    26    66    64   ar
    27    62    61   ar
    28    62    64   ar
    29    74    75    1
    30     4     3    2
    31    21    19   ar
    32    21    23   ar
    33    95    94    1
    34    19    18   ar
    35     1     2    1
    36    96    94    1
    37     3     2    1
    38     3    13   am
    39    14    15    1
    40    14    13    1
    41    14    17    1
    42    94    93    1
    43    23    22   ar
    44    15    16    2
    45     2     5    1
    46    77    78    1
    47    77    76    1
    48    18    17    1
    49    18    20   ar
    50    79    78    2
    51    78    80   am
    52    80    81    1
    53    22    20   ar
    54    93    90    1
    55     5     6    1
    56    83    82    2
    57    81    82    1
    58    81    84    1
    59    82    89   am
    60    89    90    1
    61    90    91    1
    62    24    25    1
    63    99    98    1
    64    99   100    2
    65     6     7   ar
    66     6     8   ar
    67    98   101    1
    68    98    97    1
    69     7     9   ar
    70    84    85    1
    71    29    28    1
    72   167   166    2
    73     8    10   ar
    74    91    97   am
    75    91    92    2
    76   101   102    1
    77    25    28    1
    78    25    26    1
    79    85    86    1
    80    97   103    1
    81    27    26    2
    82     9    11   ar
    83    28    30    1
    84   166   165    1
    85    10    11   ar
    86   165   164    1
    87    11    12    1
    88   102   103    1
    89    86    88   am
    90    86    87    2
    91   159   158    2
    92   164   158   am
    93   104   105    1
    94   158   157    1
    95   152   150   ar
    96   152   154   ar
    97   155   154    1
    98    31    32    1
    99   105   106    1
   100   105   108    1
   101   157   156    1
   102   157   160    1
   103   150   149   ar
   104   154   153   ar
   105   112   110   am
   106   106   107    2
   107   106   113   am
   108    32    33    1
   109   109   108    1
   110   109   110    1
   111   113   114    1
   112    35    33   am
   113    35    36    1
   114   110   111    2
   115   114   117    1
   116   114   115    1
   117   160   161    1
   118    37    38    2
   119    37    36    1
   120   117   118    1
   121    33    34    2
   122    39    36    1
   123    39    40    1
   124   149   148    1
   125   149   151   ar
   126   153   151   ar
   127   147   146    2
   128   148   145    1
   129    41    40    1
   130    41    42    1
   131   115   116    2
   132   115   119   am
   133   161   163   am
   134   161   162    2
   135   145   146    1
   136   145   144    1
   137   119   120    1
   138    42    43    2
   139   121   120    1
   140   121   122    2
   141   142   140    1
   142   120   123    1
   143    43    44    1
   144    43    45    1
   145   139   138    2
   146   143   141    1
   147   141   140    1
   148   123   124    1
   149   140   137    1
   150   138   137    1
   151   137   136    1
   152   124   125    2
   153   124   126   am
   154   135   133   ar
   155   134   133   ar
   156   133   132    1
   157   132   131    1
   158   131   128    1
   159   130   129    2
   160   128   129    1
   161   128   127    1
