@<TRIPOS>MOLECULE
tmp/1aqyA00.pdb
 188 182 0 0 0
SMALL
GASTEIGER

@<TRIPOS>ATOM
      1  N          9.4920   22.5570   65.3780 N.3    42  LYS42      -0.1231
      2  CA        10.0860   23.7600   65.9770 C.3    42  LYS42       0.1693
      3  C         10.5580   23.6610   67.4280 C.2    42  LYS42       0.2593
      4  O         10.5520   24.6690   68.1560 O.2    42  LYS42      -0.2718
      5  CB         9.1260   24.9610   65.8450 C.3    42  LYS42       0.0285
      6  CG         8.3930   25.1030   64.4920 C.3    42  LYS42       0.0035
      7  CD         9.3410   24.9530   63.2880 C.3    42  LYS42       0.0206
      8  CE        10.3510   26.0900   63.2330 C.3    42  LYS42       0.1093
      9  NZ        11.3960   25.8570   62.1890 N.3    42  LYS42      -0.1314
     10  N         10.9890   22.4640   67.8310 N.am   43  SER43      -0.1938
     11  CA        11.4820   22.2140   69.1950 C.3    43  SER43       0.2055
     12  C         13.0150   22.1220   69.2990 C.2    43  SER43       0.2644
     13  O         13.5370   21.8300   70.3760 O.2    43  SER43      -0.2714
     14  CB        10.8840   20.9030   69.7440 C.3    43  SER43       0.2130
     15  OG         9.4570   20.9040   69.7250 O.3    43  SER43      -0.2179
     16  N         13.7300   22.3490   68.1940 N.am   44  GLY44      -0.1939
     17  CA        15.1910   22.2620   68.2050 C.3    44  GLY44       0.2014
     18  C         15.7680   21.0830   67.4210 C.2    44  GLY44       0.2640
     19  O         16.9070   20.6590   67.6530 O.2    44  GLY44      -0.2714
     20  N         14.9880   20.5500   66.4830 N.am   45  THR45      -0.1936
     21  CA        15.4110   19.4050   65.6660 C.3    45  THR45       0.2028
     22  C         16.7730   19.5650   64.9740 C.2    45  THR45       0.2643
     23  O         17.6080   18.6530   65.0040 O.2    45  THR45      -0.2714
     24  CB        14.3670   19.0730   64.5590 C.3    45  THR45       0.1808
     25  OG1       13.0380   19.3300   65.0410 O.3    45  THR45      -0.2208
     26  CG2       14.4760   17.6030   64.1500 C.3    45  THR45       0.0379
     27  N         16.9870   20.7180   64.3430 N.am   46  THR46      -0.1936
     28  CA        18.2320   20.9890   63.6260 C.3    46  THR46       0.2028
     29  C         19.4510   21.0210   64.5720 C.2    46  THR46       0.2642
     30  O         20.5210   20.5030   64.2340 O.2    46  THR46      -0.2714
     31  CB        18.1180   22.3280   62.8360 C.3    46  THR46       0.1808
     32  OG1       16.8840   22.3460   62.0940 O.3    46  THR46      -0.2208
     33  CG2       19.2950   22.4860   61.8620 C.3    46  THR46       0.0379
     34  N         19.2740   21.6110   65.7550 N.am   47  TRP47      -0.1973
     35  CA        20.3380   21.7060   66.7620 C.3    47  TRP47       0.1640
     36  C         20.8400   20.3290   67.2390 C.2    47  TRP47       0.2290
     37  O         22.0400   20.0490   67.1760 O.2    47  TRP47      -0.2864
     38  CB        19.8340   22.5310   67.9720 C.3    47  TRP47       0.0576
     39  CG        20.8860   22.9250   69.0150 C.ar   47  TRP47       0.0006
     40  CD1       22.2430   22.7360   68.9410 C.ar   47  TRP47       0.0946
     41  CD2       20.6440   23.5930   70.2730 C.ar   47  TRP47       0.0152
     42  NE1       22.8570   23.2450   70.0740 N.ar   47  TRP47      -0.2442
     43  CE2       21.9020   23.7770   70.9020 C.ar   47  TRP47       0.0810
     44  CE3       19.4890   24.0530   70.9250 C.ar   47  TRP47       0.0012
     45  CZ2       22.0350   24.4010   72.1530 C.ar   47  TRP47       0.0191
     46  CZ3       19.6210   24.6750   72.1750 C.ar   47  TRP47       0.0001
     47  CH2       20.8890   24.8420   72.7700 C.ar   47  TRP47       0.0015
     48  N          8.6730   13.7470   62.4840 N.3    97  HIS97      -0.1241
     49  CA         7.8280   14.5570   63.3780 C.3    97  HIS97       0.1621
     50  C          6.5390   13.7660   63.7300 C.2    97  HIS97       0.2264
     51  O          5.6000   14.3130   64.3160 O.2    97  HIS97      -0.2867
     52  CB         7.4080   15.9020   62.7430 C.3    97  HIS97       0.0745
     53  CG         8.5270   16.8810   62.5350 C.ar   97  HIS97       0.0817
     54  ND1        9.4420   17.2060   63.5160 N.ar   97  HIS97      -0.2268
     55  CD2        8.8500   17.6410   61.4580 C.ar   97  HIS97       0.1154
     56  CE1       10.2770   18.1210   63.0550 C.ar   97  HIS97       0.1986
     57  NE2        9.9400   18.4030   61.8090 N.ar   97  HIS97      -0.2212
     58  N         10.1080   21.0140   73.8950 N.3   119  ARG119     -0.1245
     59  CA        10.3170   22.4190   74.2740 C.3   119  ARG119      0.1563
     60  C          9.0100   22.9400   74.9100 C.2   119  ARG119      0.2260
     61  O          7.9360   22.4250   74.6030 O.2   119  ARG119     -0.2867
     62  CB        10.6750   23.2220   73.0060 C.3   119  ARG119      0.0307
     63  CG        10.9400   24.7270   73.1800 C.3   119  ARG119      0.0489
     64  CD        11.3290   25.3620   71.8300 C.3   119  ARG119      0.2205
     65  NE        11.9150   26.6990   71.9550 N.pl3 119  ARG119     -0.0865
     66  CZ        12.2730   27.4710   70.9230 C.cat 119  ARG119      0.5346
     67  NH1       12.1050   27.0520   69.6680 N.pl3 119  ARG119      0.1354
     68  NH2       12.8290   28.6590   71.1360 N.pl3 119  ARG119      0.1354
     69  N          6.4970   28.6890   73.8420 N.3   123  ASP123     -0.1239
     70  CA         7.5960   29.0800   72.9690 C.3   123  ASP123      0.1674
     71  C          7.5290   28.3240   71.6310 C.2   123  ASP123      0.2266
     72  O          7.9900   28.8260   70.6060 O.2   123  ASP123     -0.2867
     73  CB         8.9450   28.8480   73.6740 C.3   123  ASP123      0.1410
     74  CG         9.3350   30.0080   74.6020 C.2   123  ASP123      0.3668
     75  OD1        8.7270   31.0980   74.5080 O.co2 123  ASP123     -0.2456
     76  OD2       10.2610   29.8270   75.4290 O.co2 123  ASP123     -0.2456
     77  N          7.3140   30.0570   67.6010 N.3   127  SER127     -0.1217
     78  CA         8.1980   29.5890   66.5300 C.3   127  SER127      0.1889
     79  C          7.4330   28.9600   65.3420 C.2   127  SER127      0.2288
     80  O          7.8050   29.1610   64.1800 O.2   127  SER127     -0.2866
     81  CB         9.2020   28.5820   67.1000 C.3   127  SER127      0.2089
     82  OG        10.2590   28.3240   66.1910 O.3   127  SER127     -0.2183
     83  N         14.8390   21.0910   75.3570 N.3   182  TYR182     -0.1241
     84  CA        15.5280   22.2200   74.7160 C.3   182  TYR182      0.1605
     85  C         16.1520   23.1630   75.7640 C.2   182  TYR182      0.2264
     86  O         17.3090   23.6040   75.6320 O.2   182  TYR182     -0.2867
     87  CB        14.5180   22.9880   73.8210 C.3   182  TYR182      0.0534
     88  CG        15.0250   24.2740   73.1730 C.ar  182  TYR182     -0.0201
     89  CD1       15.6300   24.2580   71.9090 C.ar  182  TYR182     -0.0009
     90  CD2       14.8730   25.5140   73.8140 C.ar  182  TYR182     -0.0009
     91  CE1       16.0700   25.4500   71.3010 C.ar  182  TYR182      0.0417
     92  CE2       15.3090   26.7060   73.2190 C.ar  182  TYR182      0.0417
     93  CZ        15.9070   26.6690   71.9640 C.ar  182  TYR182      0.1957
     94  OH        16.3510   27.8410   71.3820 O.3   182  TYR182     -0.2866
     95  N         20.0470   24.5670   76.6070 N.3   186  LYS186     -0.1245
     96  CA        20.3170   25.9940   76.7150 C.3   186  LYS186      0.1561
     97  C         21.0540   26.3390   78.0220 C.2   186  LYS186      0.2260
     98  O         22.0450   27.0790   78.0080 O.2   186  LYS186     -0.2867
     99  CB        19.0090   26.8020   76.6720 C.3   186  LYS186      0.0271
    100  CG        18.4060   27.0550   75.2800 C.3   186  LYS186      0.0035
    101  CD        19.2590   28.0190   74.4210 C.3   186  LYS186      0.0206
    102  CE        19.1520   29.4710   74.8860 C.3   186  LYS186      0.1093
    103  NZ        19.9470   30.4080   74.0260 N.3   186  LYS186     -0.1314
    104  N         28.3690   23.8920   67.6170 N.3   216  THR216     -0.1218
    105  CA        26.9120   23.9400   67.5990 C.3   216  THR216      0.1862
    106  C         26.2240   25.1130   68.3030 C.2   216  THR216      0.2287
    107  O         25.0230   25.0510   68.5880 O.2   216  THR216     -0.2866
    108  CB        26.3120   22.6060   68.1280 C.3   216  THR216      0.1770
    109  OG1       26.7540   22.3670   69.4680 O.3   216  THR216     -0.2211
    110  CG2       26.7420   21.4440   67.2500 C.3   216  THR216      0.0375
    111  N         24.4680   28.8550   68.6730 N.3   218  PHE218     -0.1241
    112  CA        23.5340   29.5500   67.7930 C.3   218  PHE218      0.1605
    113  C         24.2400   30.4890   66.8160 C.2   218  PHE218      0.2264
    114  O         23.8320   30.5930   65.6590 O.2   218  PHE218     -0.2867
    115  CB        22.4950   30.3350   68.6040 C.3   218  PHE218      0.0534
    116  CG        21.4900   31.0890   67.7510 C.ar  218  PHE218     -0.0203
    117  CD1       20.3420   30.4570   67.2740 C.ar  218  PHE218     -0.0042
    118  CD2       21.6930   32.4280   67.4280 C.ar  218  PHE218     -0.0042
    119  CE1       19.4100   31.1420   66.4900 C.ar  218  PHE218     -0.0003
    120  CE2       20.7620   33.1290   66.6390 C.ar  218  PHE218     -0.0003
    121  CZ        19.6180   32.4790   66.1720 C.ar  218  PHE218     -0.0000
    122  N         25.9760   28.0760   63.9450 N.3   221  MET221     -0.1245
    123  CA        24.9660   27.4810   63.0620 C.3   221  MET221      0.1570
    124  C         24.1870   28.4920   62.2100 C.2   221  MET221      0.2261
    125  O         23.7190   28.1620   61.1170 O.2   221  MET221     -0.2867
    126  CB        23.9990   26.6130   63.8910 C.3   221  MET221      0.0387
    127  CG        24.7100   25.4670   64.6130 C.3   221  MET221      0.0595
    128  SD        23.7010   24.1370   65.3170 S.3   221  MET221     -0.1393
    129  CE        22.7710   23.6410   63.8790 C.3   221  MET221      0.0692
    130  N         15.2830   31.2210   59.2340 N.3   244  PHE244     -0.1227
    131  CA        15.1440   29.9380   59.9340 C.3   244  PHE244      0.1736
    132  C         15.7730   30.0050   61.3380 C.2   244  PHE244      0.2595
    133  O         15.1620   29.5790   62.3240 O.2   244  PHE244     -0.2718
    134  CB        15.7800   28.7980   59.1250 C.3   244  PHE244      0.0547
    135  CG        15.4640   27.4190   59.6630 C.ar  244  PHE244     -0.0202
    136  CD1       14.3270   26.7350   59.2380 C.ar  244  PHE244     -0.0042
    137  CD2       16.2960   26.8160   60.6110 C.ar  244  PHE244     -0.0042
    138  CE1       14.0180   25.4640   59.7490 C.ar  244  PHE244     -0.0003
    139  CE2       16.0030   25.5540   61.1310 C.ar  244  PHE244     -0.0003
    140  CZ        14.8630   24.8730   60.7020 C.ar  244  PHE244     -0.0000
    141  N         16.9950   30.5260   61.4190 N.am  245  MET245     -0.1965
    142  CA        17.6770   30.6910   62.7020 C.3   245  MET245      0.1736
    143  C         17.2340   32.0870   63.1350 C.2   245  MET245      0.2616
    144  O         17.9140   33.0770   62.8600 O.2   245  MET245     -0.2715
    145  CB        19.1940   30.6300   62.5070 C.3   245  MET245      0.0427
    146  CG        19.6920   29.2730   62.0190 C.3   245  MET245      0.0599
    147  SD        19.5410   27.9830   63.2680 S.3   245  MET245     -0.1393
    148  CE        20.1920   26.5280   62.3670 C.3   245  MET245      0.0692
    149  N         16.0730   32.1380   63.7960 N.am  246  ARG246     -0.1963
    150  CA        15.4210   33.3760   64.2370 C.3   246  ARG246      0.1729
    151  C         15.9840   34.0710   65.4760 C.2   246  ARG246      0.2616
    152  O         16.6500   35.0940   65.3540 O.2   246  ARG246     -0.2715
    153  CB        13.9180   33.1030   64.4290 C.3   246  ARG246      0.0348
    154  CG        13.0150   34.3170   64.2490 C.3   246  ARG246      0.0492
    155  CD        11.5440   33.9630   64.4400 C.3   246  ARG246      0.2205
    156  NE        11.2950   33.2700   65.7050 N.pl3 246  ARG246     -0.0865
    157  CZ        10.9460   33.8710   66.8400 C.cat 246  ARG246      0.5346
    158  NH1       10.7990   35.1910   66.8800 N.pl3 246  ARG246      0.1354
    159  NH2       10.7450   33.1510   67.9430 N.pl3 246  ARG246      0.1354
    160  N         15.7040   33.5380   66.6620 N.am  247  LYS247     -0.1963
    161  CA        16.1980   34.1350   67.9110 C.3   247  LYS247      0.1728
    162  C         17.0110   33.1490   68.7650 C.2   247  LYS247      0.2617
    163  O         18.0690   33.5050   69.2880 O.2   247  LYS247     -0.2715
    164  CB        15.0300   34.6830   68.7380 C.3   247  LYS247      0.0311
    165  CG        14.5970   36.0810   68.3390 C.3   247  LYS247      0.0038
    166  CD        13.4340   36.5660   69.1780 C.3   247  LYS247      0.0206
    167  CE        12.9280   37.9040   68.6750 C.3   247  LYS247      0.1093
    168  NZ        12.0210   38.5880   69.6450 N.3   247  LYS247     -0.1314
    169  N         16.5120   31.9230   68.9070 N.am  248  GLY248     -0.1940
    170  CA        17.2060   30.9120   69.6860 C.3   248  GLY248      0.2014
    171  C         17.2590   31.1450   71.1920 C.2   248  GLY248      0.2638
    172  O         18.2630   30.8130   71.8340 O.2   248  GLY248     -0.2714
    173  N         16.1870   31.6950   71.7590 N.am  249  ILE249     -0.1977
    174  CA        16.1290   31.9770   73.1940 C.3   249  ILE249      0.1596
    175  C         14.9590   31.3080   73.9110 C.2   249  ILE249      0.2287
    176  O         14.1150   30.6610   73.2920 O.2   249  ILE249     -0.2864
    177  CB        16.0090   33.5020   73.4640 C.3   249  ILE249      0.0276
    178  CG1       14.6550   34.0100   72.9530 C.3   249  ILE249      0.0022
    179  CG2       17.1660   34.2530   72.8090 C.3   249  ILE249      0.0022
    180  CD1       14.2920   35.4140   73.4100 C.3   249  ILE249      0.0001
    181  N         10.4410   33.9330   74.4530 N.3   252  ASP252     -0.1239
    182  CA         9.9290   34.8840   73.4630 C.3   252  ASP252      0.1674
    183  C          8.3890   34.9950   73.5200 C.2   252  ASP252      0.2266
    184  O          7.8160   35.9170   72.9320 O.2   252  ASP252     -0.2867
    185  CB        10.3980   34.5100   72.0380 C.3   252  ASP252      0.1410
    186  CG        10.3460   35.6990   71.0520 C.2   252  ASP252      0.3668
    187  OD1       10.4470   36.8790   71.4790 O.co2 252  ASP252     -0.2456
    188  OD2       10.2050   35.4480   69.8320 O.co2 252  ASP252     -0.2456
@<TRIPOS>BOND
     1   134   135    1
     2   134   131    1
     3   130   131    1
     4   136   135   ar
     5   136   138   ar
     6   135   137   ar
     7   138   140   ar
     8   131   132    1
     9   137   139   ar
    10   140   139   ar
    11   125   124    2
    12   132   141   am
    13   132   133    2
    14   141   142    1
    15    55    57   ar
    16    55    53   ar
    17    57    56   ar
    18    33    31    1
    19   146   145    1
    20   146   147    1
    21    32    31    1
    22     9     8    1
    23   124   123    1
    24   148   147    1
    25    48    49    1
    26   145   142    1
    27    53    52    1
    28    53    54   ar
    29   142   143    1
    30    52    49    1
    31    31    28    1
    32   144   143    2
    33    56    54   ar
    34   123   126    1
    35   123   122    1
    36   143   149   am
    37     8     7    1
    38     7     6    1
    39    49    50    1
    40    28    27    1
    41    28    29    1
    42    50    51    2
    43   149   150    1
    44   129   128    1
    45   126   127    1
    46    26    24    1
    47    80    79    2
    48    30    29    2
    49   150   153    1
    50   150   151    1
    51   154   153    1
    52   154   155    1
    53    27    22   am
    54   155   156    1
    55     6     5    1
    56    24    25    1
    57    24    21    1
    58    29    34   am
    59   127   128    1
    60    22    23    2
    61    22    21    1
    62    79    78    1
    63   152   151    2
    64     1     2    1
    65   151   160   am
    66   114   113    2
    67    21    20    1
    68   156   157    2
    69    34    35    1
    70     5     2    1
    71     2     3    1
    72   121   119   ar
    73   121   120   ar
    74    82    81    1
    75    20    18   am
    76   119   117   ar
    77    78    81    1
    78    78    77    1
    79   120   118   ar
    80   160   161    1
    81    35    36    1
    82    35    38    1
    83   113   112    1
    84   157   158    1
    85   157   159    1
    86    37    36    2
    87   110   108    1
    88   117   116   ar
    89    18    19    2
    90    18    17    1
    91     3    10   am
    92     3     4    2
    93   118   116   ar
    94   105   104    1
    95   105   108    1
    96   105   106    1
    97   116   115    1
    98   112   115    1
    99   112   111    1
   100    10    11    1
   101   161   164    1
   102   161   162    1
   103    38    39    1
   104   108   109    1
   105    16    17    1
   106    16    12   am
   107   106   107    2
   108   165   164    1
   109   165   166    1
   110   167   166    1
   111   167   168    1
   112   162   169   am
   113   162   163    2
   114   169   170    1
   115    40    39   ar
   116    40    42   ar
   117    39    41   ar
   118    11    12    1
   119    11    14    1
   120    12    13    2
   121    67    66    1
   122   170   171    1
   123    15    14    1
   124   188   186   ar
   125    42    43   ar
   126    41    43   ar
   127    41    44   ar
   128    72    71    2
   129    43    45   ar
   130    66    68    1
   131    66    65    2
   132    44    46   ar
   133   186   187   ar
   134   186   185    1
   135   171   173   am
   136   171   172    2
   137    91    89   ar
   138    91    93   ar
   139    94    93    1
   140    71    70    1
   141   173   174    1
   142    64    65    1
   143    64    63    1
   144    89    88   ar
   145    93    92   ar
   146   185   182    1
   147    45    47   ar
   148    46    47   ar
   149   179   177    1
   150   184   183    2
   151   178   180    1
   152   178   177    1
   153    70    73    1
   154    70    69    1
   155    62    63    1
   156    62    59    1
   157    88    90   ar
   158    88    87    1
   159   174   177    1
   160   174   175    1
   161    92    90   ar
   162   176   175    2
   163   182   183    1
   164   182   181    1
   165    73    74    1
   166    87    84    1
   167    58    59    1
   168   103   102    1
   169    59    60    1
   170   101   102    1
   171   101   100    1
   172    75    74   ar
   173    74    76   ar
   174    61    60    2
   175    84    83    1
   176    84    85    1
   177   100    99    1
   178    86    85    2
   179    95    96    1
   180    99    96    1
   181    96    97    1
   182    98    97    2
