@<TRIPOS>MOLECULE
tmp/1arcA00.pdb
 114 112 0 0 0
SMALL
GASTEIGER

@<TRIPOS>ATOM
      1  N         -7.1520    1.4650   -0.1970 N.3    35  ALA35      -0.1231
      2  CA        -6.8420    1.1560    1.1970 C.3    35  ALA35       0.1694
      3  C         -7.2790   -0.1470    1.7760 C.2    35  ALA35       0.2592
      4  O         -6.4380   -0.9030    2.3020 O.2    35  ALA35      -0.2718
      5  CB        -7.4860    2.3070    2.0250 C.3    35  ALA35       0.0304
      6  N         -8.5840   -0.4180    1.7680 N.am   36  CYS36      -0.1970
      7  CA        -9.0170   -1.6840    2.4230 C.3    36  CYS36       0.1712
      8  C        -10.2840   -2.2490    1.8000 C.2    36  CYS36       0.2296
      9  O        -10.7400   -1.8100    0.7710 O.2    36  CYS36      -0.2864
     10  CB        -9.2770   -1.2990    3.9010 C.3    36  CYS36       0.0983
     11  SG        -7.8050   -0.9520    4.9090 S.3    36  CYS36      -0.0798
     12  N         -8.4560    0.2970   11.9600 N.3    57  HIS57      -0.1226
     13  CA        -7.0800    0.6200   11.5790 C.3    57  HIS57       0.1752
     14  C         -6.9420    1.1680   10.1680 C.2    57  HIS57       0.2596
     15  O         -5.8830    1.7160    9.8350 O.2    57  HIS57      -0.2718
     16  CB        -6.0710   -0.4960   11.8760 C.3    57  HIS57       0.0759
     17  CG        -5.9490   -1.5290   10.7910 C.ar   57  HIS57       0.0818
     18  ND1       -6.7190   -2.6540   10.7870 N.ar   57  HIS57      -0.2268
     19  CD2       -5.1660   -1.5840    9.6940 C.ar   57  HIS57       0.1154
     20  CE1       -6.3910   -3.3870    9.7350 C.ar   57  HIS57       0.1986
     21  NE2       -5.4450   -2.7790    9.0390 N.ar   57  HIS57      -0.2212
     22  N         -7.9560    1.0280    9.3330 N.am   58  CYS58      -0.1970
     23  CA        -7.9120    1.5790    7.9590 C.3    58  CYS58       0.1712
     24  C         -8.1010    3.1050    7.9830 C.2    58  CYS58       0.2296
     25  O         -7.9020    3.7720    6.9500 O.2    58  CYS58      -0.2864
     26  CB        -8.9190    0.8790    7.0590 C.3    58  CYS58       0.0983
     27  SG        -8.5820   -0.9020    6.8020 S.3    58  CYS58      -0.0798
     28  N         -5.9250   -9.7540   20.2770 N.3   169  TRP169     -0.1241
     29  CA        -5.1160   -9.3020   19.1070 C.3   169  TRP169      0.1605
     30  C         -3.6760   -9.7030   19.4330 C.2   169  TRP169      0.2264
     31  O         -3.2110   -9.4420   20.5740 O.2   169  TRP169     -0.2867
     32  CB        -5.3430   -7.7950   18.9230 C.3   169  TRP169      0.0550
     33  CG        -4.3660   -7.1410   18.0070 C.ar  169  TRP169      0.0003
     34  CD1       -3.4620   -6.1710   18.3280 C.ar  169  TRP169      0.0946
     35  CD2       -4.1320   -7.4650   16.6290 C.ar  169  TRP169      0.0152
     36  NE1       -2.7100   -5.8460   17.2350 N.ar  169  TRP169     -0.2442
     37  CE2       -3.0900   -6.6300   16.1750 C.ar  169  TRP169      0.0810
     38  CE3       -4.7090   -8.3630   15.7370 C.ar  169  TRP169      0.0012
     39  CZ2       -2.6350   -6.6510   14.8730 C.ar  169  TRP169      0.0191
     40  CZ3       -4.2370   -8.4040   14.4270 C.ar  169  TRP169      0.0001
     41  CH2       -3.2180   -7.5540   14.0090 C.ar  169  TRP169      0.0015
     42  N         -5.1040  -14.0890    3.4430 N.3   189  THR189     -0.1203
     43  CA        -5.4810  -12.6600    3.3910 C.3   189  THR189      0.1994
     44  C         -4.1740  -11.8650    3.2900 C.2   189  THR189      0.2618
     45  O         -3.1270  -12.4120    3.7080 O.2   189  THR189     -0.2717
     46  CB        -6.3580  -12.1240    4.5680 C.3   189  THR189      0.1784
     47  OG1       -5.5010  -12.0640    5.7570 O.3   189  THR189     -0.2211
     48  CG2       -7.6500  -12.9300    4.8210 C.3   189  THR189      0.0376
     49  N         -4.2750  -10.6390    2.8080 N.am  190  GLU190     -0.1965
     50  CA        -3.0970   -9.7660    2.6520 C.3   190  GLU190      0.1718
     51  C         -3.4720   -8.3320    2.9970 C.2   190  GLU190      0.2458
     52  O         -4.6710   -8.0190    3.1380 O.2   190  GLU190     -0.2730
     53  CB        -2.6370   -9.7980    1.1850 C.3   190  GLU190      0.0428
     54  CG        -2.3460  -11.2060    0.6310 C.3   190  GLU190      0.1163
     55  CD        -1.9920  -11.3050   -0.8200 C.2   190  GLU190      0.3649
     56  OE1       -1.9140  -10.3260   -1.5430 O.co2 190  GLU190     -0.2457
     57  OE2       -1.7740  -12.4820   -1.2290 O.co2 190  GLU190     -0.2457
     58  N         -2.4460   -7.5160    3.1860 N.am  191  PRO191     -0.2716
     59  CA        -2.6740   -6.0720    3.4830 C.3   191  PRO191      0.1536
     60  C         -3.6850   -5.6160    2.4270 C.2   191  PRO191      0.2599
     61  O         -3.4660   -5.9370    1.2490 O.2   191  PRO191     -0.2715
     62  CB        -1.3040   -5.4340    3.2060 C.3   191  PRO191      0.0310
     63  CG        -0.3190   -6.5690    3.4990 C.3   191  PRO191      0.0237
     64  CD        -1.0220   -7.8540    3.0730 C.3   191  PRO191      0.0939
     65  N         -4.6870   -4.8710    2.8400 N.am  192  GLY192     -0.1955
     66  CA        -5.7330   -4.4000    1.8880 C.3   192  GLY192      0.1869
     67  C         -6.9890   -5.2300    2.1410 C.2   192  GLY192      0.2309
     68  O         -8.1140   -4.7630    1.9690 O.2   192  GLY192     -0.2863
     69  N         -7.7920   -6.0580    5.0580 N.3   194  SER194     -0.1217
     70  CA        -8.3950   -5.6500    6.3400 C.3   194  SER194      0.1889
     71  C         -9.7710   -5.0250    6.1670 C.2   194  SER194      0.2288
     72  O        -10.0330   -4.2700    5.2390 O.2   194  SER194     -0.2866
     73  CB        -7.5480   -4.6620    7.1150 C.3   194  SER194      0.2089
     74  OG        -6.4540   -5.4890    7.5850 O.3   194  SER194     -0.2183
     75  N        -11.7140   -8.5360    9.3650 N.3   209  LEU209     -0.1231
     76  CA       -10.2850   -8.7040    9.4610 C.3   209  LEU209      0.1693
     77  C         -9.4910   -7.5790   10.1120 C.2   209  LEU209      0.2592
     78  O         -9.4150   -6.4650    9.5980 O.2   209  LEU209     -0.2718
     79  CB        -9.6930   -9.0540    8.0710 C.3   209  LEU209      0.0284
     80  CG        -8.1820   -9.3530    8.1150 C.3   209  LEU209      0.0019
     81  CD1       -7.9490  -10.6630    8.8230 C.3   209  LEU209      0.0001
     82  CD2       -7.6290   -9.4090    6.6930 C.3   209  LEU209      0.0001
     83  N         -8.8120   -7.9810   11.1810 N.am  210  HIS210     -0.1962
     84  CA        -7.9220   -7.0440   11.9120 C.3   210  HIS210      0.1787
     85  C         -6.5350   -7.2050   11.2770 C.2   210  HIS210      0.2621
     86  O         -5.9050   -6.2260   10.8470 O.2   210  HIS210     -0.2715
     87  CB        -7.8780   -7.3410   13.4110 C.3   210  HIS210      0.0785
     88  CG        -7.1720   -6.2860   14.2220 C.ar  210  HIS210      0.0821
     89  ND1       -7.4210   -6.0960   15.5600 N.ar  210  HIS210     -0.2267
     90  CD2       -6.2320   -5.4030   13.8520 C.ar  210  HIS210      0.1154
     91  CE1       -6.6390   -5.1070   16.0060 C.ar  210  HIS210      0.1986
     92  NE2       -5.9100   -4.6860   14.9730 N.ar  210  HIS210     -0.2212
     93  N         -6.1230   -8.4810   11.2370 N.am  211  GLY211     -0.1940
     94  CA        -4.8090   -8.8180   10.6140 C.3   211  GLY211      0.2014
     95  C         -4.3420  -10.1830   11.1290 C.2   211  GLY211      0.2639
     96  O         -5.0950  -10.9480   11.7510 O.2   211  GLY211     -0.2714
     97  N         -3.0600  -10.4540   10.8710 N.am  212  GLY212     -0.1954
     98  CA        -2.4940  -11.7470   11.3170 C.3   212  GLY212      0.1869
     99  C         -1.2450  -12.0400   10.4860 C.2   212  GLY212      0.2309
    100  O         -0.8550  -11.2540    9.6020 O.2   212  GLY212     -0.2863
    101  N         -0.6410  -14.5610    8.3200 N.3   214  SER214     -0.1217
    102  CA        -0.6890  -15.2070    7.0030 C.3   214  SER214      0.1889
    103  C         -0.1690  -14.4230    5.8130 C.2   214  SER214      0.2288
    104  O         -0.2180  -13.2130    5.6930 O.2   214  SER214     -0.2866
    105  CB        -2.1060  -15.7090    6.6930 C.3   214  SER214      0.2089
    106  OG        -2.9150  -14.7030    6.1270 O.3   214  SER214     -0.2183
    107  N         -5.3130  -15.8790   10.6060 N.3   225  ASP225     -0.1239
    108  CA        -5.6240  -14.4310   10.7830 C.3   225  ASP225      0.1674
    109  C         -6.5920  -14.2600   11.9560 C.2   225  ASP225      0.2266
    110  O         -7.2480  -15.2110   12.4020 O.2   225  ASP225     -0.2867
    111  CB        -6.1620  -13.8060    9.4970 C.3   225  ASP225      0.1410
    112  CG        -5.0700  -13.5580    8.4850 C.2   225  ASP225      0.3668
    113  OD1       -4.2200  -12.7090    8.7860 O.co2 225  ASP225     -0.2456
    114  OD2       -5.0780  -14.1480    7.3920 O.co2 225  ASP225     -0.2456
@<TRIPOS>BOND
     1    56    55   ar
     2    57    55   ar
     3    55    54    1
     4     1     2    1
     5    54    53    1
     6     9     8    2
     7    53    50    1
     8     2     3    1
     9     2     5    1
    10    61    60    2
    11     6     3   am
    12     6     7    1
    13     3     4    2
    14     8     7    1
    15    66    67    1
    16    66    65    1
    17    68    67    2
    18     7    10    1
    19    60    65   am
    20    60    59    1
    21    50    49    1
    22    50    51    1
    23    49    44   am
    24    51    52    2
    25    51    58   am
    26    64    58    1
    27    64    63    1
    28    58    59    1
    29    62    59    1
    30    62    63    1
    31    44    43    1
    32    44    45    2
    33    43    42    1
    34    43    46    1
    35    10    11    1
    36    46    48    1
    37    46    47    1
    38    11    27    1
    39    69    70    1
    40    72    71    2
    41   104   103    2
    42   103   102    1
    43   106   105    1
    44    71    70    1
    45    70    73    1
    46    82    80    1
    47   105   102    1
    48    27    26    1
    49    25    24    2
    50   102   101    1
    51    26    23    1
    52    73    74    1
    53   114   112   ar
    54    23    24    1
    55    23    22    1
    56    79    80    1
    57    79    76    1
    58    80    81    1
    59   112   113   ar
    60   112   111    1
    61    21    19   ar
    62    21    20   ar
    63    22    14   am
    64    75    76    1
    65    76    77    1
    66   111   108    1
    67    78    77    2
    68   100    99    2
    69    19    17   ar
    70    20    18   ar
    71    15    14    2
    72    77    83   am
    73    14    13    1
    74    99    98    1
    75   107   108    1
    76    94    95    1
    77    94    93    1
    78   108   109    1
    79    18    17   ar
    80    17    16    1
    81    86    85    2
    82    97    95   am
    83    97    98    1
    84    95    96    2
    85    83    84    1
    86    93    85   am
    87    85    84    1
    88    13    16    1
    89    13    12    1
    90    84    87    1
    91   109   110    2
    92    87    88    1
    93    90    88   ar
    94    90    92   ar
    95    41    40   ar
    96    41    39   ar
    97    88    89   ar
    98    40    38   ar
    99    39    37   ar
   100    92    91   ar
   101    89    91   ar
   102    38    35   ar
   103    37    35   ar
   104    37    36   ar
   105    35    33   ar
   106    36    34   ar
   107    33    34   ar
   108    33    32    1
   109    32    29    1
   110    29    30    1
   111    29    28    1
   112    30    31    2
