@<TRIPOS>MOLECULE
tmp/1arhA00.pdb
 175 165 0 0 0
SMALL
GASTEIGER

@<TRIPOS>ATOM
      1  N        -16.8960   51.3620   28.6430 N.3    13  ILE13      -0.1231
      2  CA       -16.8110   51.7080   27.2340 C.3    13  ILE13       0.1692
      3  C        -17.2590   50.5560   26.3760 C.2    13  ILE13       0.2591
      4  O        -18.1520   50.6860   25.5520 O.2    13  ILE13      -0.2718
      5  CB       -15.4080   52.1790   26.8230 C.3    13  ILE13       0.0266
      6  CG1      -15.1150   53.5400   27.4190 C.3    13  ILE13       0.0019
      7  CG2      -15.2940   52.3060   25.3100 C.3    13  ILE13       0.0020
      8  CD1      -13.9890   53.5180   28.4410 C.3    13  ILE13       0.0001
      9  N        -16.6180   49.4260   26.5920 N.am   14  LEU14      -0.1980
     10  CA       -16.8970   48.2270   25.8390 C.3    14  LEU14       0.1596
     11  C        -18.3490   47.7960   26.0060 C.2    14  LEU14       0.2287
     12  O        -19.0220   47.3890   25.0560 O.2    14  LEU14      -0.2864
     13  CB       -15.8790   47.1100   26.1890 C.3    14  LEU14       0.0297
     14  CG       -14.5330   47.2490   25.4560 C.3    14  LEU14       0.0022
     15  CD1      -14.4750   48.5480   24.6570 C.3    14  LEU14       0.0001
     16  CD2      -13.3440   47.1550   26.4140 C.3    14  LEU14       0.0001
     17  N        -17.3090   56.3690   21.4600 N.3    33  ILE33      -0.1231
     18  CA       -16.0870   55.5930   21.4860 C.3    33  ILE33       0.1692
     19  C        -15.0390   56.2720   20.6570 C.2    33  ILE33       0.2593
     20  O        -15.2870   56.6100   19.5050 O.2    33  ILE33      -0.2718
     21  CB       -16.2170   54.1400   21.1170 C.3    33  ILE33       0.0266
     22  CG1      -14.8080   53.6030   21.0970 C.3    33  ILE33       0.0019
     23  CG2      -16.8130   54.0070   19.7270 C.3    33  ILE33       0.0020
     24  CD1      -14.7690   52.1220   20.7940 C.3    33  ILE33       0.0001
     25  N        -13.8850   56.4680   21.2940 N.am   34  GLY34      -0.1942
     26  CA       -12.7100   57.1770   20.7950 C.3    34  GLY34       0.2014
     27  C        -11.9740   56.6720   19.5540 C.2    34  GLY34       0.2638
     28  O        -10.7610   56.8350   19.4520 O.2    34  GLY34      -0.2714
     29  N        -12.7010   56.1050   18.6080 N.am   35  VAL35      -0.1977
     30  CA       -12.1400   55.6140   17.3690 C.3    35  VAL35       0.1596
     31  C        -12.4830   56.5850   16.2370 C.2    35  VAL35       0.2287
     32  O        -13.5270   57.2290   16.2060 O.2    35  VAL35      -0.2864
     33  CB       -12.7070   54.2430   17.0680 C.3    35  VAL35       0.0276
     34  CG1      -13.0320   54.1310   15.5940 C.3    35  VAL35       0.0022
     35  CG2      -11.7720   53.1300   17.5120 C.3    35  VAL35       0.0022
     36  N         -0.1010   47.8210   22.0800 N.3   102  GLY102     -0.1210
     37  CA        -0.9860   48.9810   22.2340 C.3   102  GLY102      0.1956
     38  C         -0.5730   49.9230   23.3770 C.2   102  GLY102      0.2612
     39  O          0.4140   49.6670   24.0740 O.2   102  GLY102     -0.2717
     40  N         -1.3260   51.0330   23.5280 N.am  103  GLY103     -0.1942
     41  CA        -1.1270   52.0290   24.5850 C.3   103  GLY103      0.2014
     42  C         -1.4810   51.4250   25.9550 C.2   103  GLY103      0.2639
     43  O         -0.8450   51.6980   26.9590 O.2   103  GLY103     -0.2714
     44  N         -2.4890   50.5560   25.9700 N.am  104  THR104     -0.1950
     45  CA        -2.8730   49.8770   27.1800 C.3   104  THR104      0.1897
     46  C         -1.7220   49.0190   27.6860 C.2   104  THR104      0.2313
     47  O         -1.3600   49.0880   28.8620 O.2   104  THR104     -0.2863
     48  CB        -4.1370   48.9940   27.0010 C.3   104  THR104      0.1794
     49  OG1       -5.1750   49.7150   26.4000 O.3   104  THR104     -0.2208
     50  CG2       -4.6250   48.4970   28.3530 C.3   104  THR104      0.0378
     51  N          1.0090   50.9840   29.4910 N.3   107  LEU107     -0.1245
     52  CA         0.5400   51.4560   30.7650 C.3   107  LEU107      0.1561
     53  C          0.7430   50.3150   31.7550 C.2   107  LEU107      0.2260
     54  O          1.3290   50.4520   32.8160 O.2   107  LEU107     -0.2867
     55  CB        -0.9720   51.6930   30.5810 C.3   107  LEU107      0.0270
     56  CG        -1.4800   53.1270   30.5470 C.3   107  LEU107      0.0019
     57  CD1       -0.4010   54.1760   30.7360 C.3   107  LEU107      0.0001
     58  CD2       -2.3250   53.3780   29.3130 C.3   107  LEU107      0.0001
     59  N         -9.8640   58.4920   31.3030 N.3   130  TRP130     -0.1241
     60  CA       -10.2990   57.2980   30.6040 C.3   130  TRP130      0.1605
     61  C        -10.5160   56.2280   31.6840 C.2   130  TRP130      0.2264
     62  O         -9.6020   55.9490   32.4610 O.2   130  TRP130     -0.2867
     63  CB        -9.1680   56.8950   29.6350 C.3   130  TRP130      0.0550
     64  CG        -9.3030   55.5880   28.9250 C.ar  130  TRP130      0.0003
     65  CD1      -10.3640   55.1660   28.1910 C.ar  130  TRP130      0.0946
     66  CD2       -8.3010   54.5770   28.8120 C.ar  130  TRP130      0.0152
     67  NE1      -10.1090   53.9310   27.6590 N.ar  130  TRP130     -0.2442
     68  CE2       -8.8410   53.5480   28.0110 C.ar  130  TRP130      0.0810
     69  CE3       -7.0090   54.4420   29.3170 C.ar  130  TRP130      0.0012
     70  CZ2       -8.1120   52.3900   27.7070 C.ar  130  TRP130      0.0191
     71  CZ3       -6.2840   53.3040   29.0120 C.ar  130  TRP130      0.0001
     72  CH2       -6.8260   52.2970   28.2150 C.ar  130  TRP130      0.0015
     73  N         -2.2670   63.3900   30.4430 N.3   178  HIS178     -0.1241
     74  CA        -2.6990   63.0940   29.1000 C.3   178  HIS178      0.1621
     75  C         -1.8820   64.0340   28.2180 C.2   178  HIS178      0.2264
     76  O         -2.0370   65.2460   28.3420 O.2   178  HIS178     -0.2867
     77  CB        -4.1770   63.4680   28.9610 C.3   178  HIS178      0.0745
     78  CG        -5.0720   62.4400   29.5260 C.ar  178  HIS178      0.0817
     79  ND1       -5.8740   61.6830   28.7060 N.ar  178  HIS178     -0.2268
     80  CD2       -5.2780   62.0600   30.8150 C.ar  178  HIS178      0.1154
     81  CE1       -6.5570   60.8650   29.5000 C.ar  178  HIS178      0.1986
     82  NE2       -6.2250   61.0660   30.7730 N.ar  178  HIS178     -0.2212
     83  N         -5.1130   66.0620   23.6830 N.3   181  CYS181     -0.1235
     84  CA        -6.4190   65.4530   23.4240 C.3   181  CYS181      0.1677
     85  C         -6.9390   64.6550   24.6080 C.2   181  CYS181      0.2270
     86  O         -7.2330   63.4590   24.4760 O.2   181  CYS181     -0.2867
     87  CB        -6.3960   64.5170   22.2000 C.3   181  CYS181      0.0956
     88  SG        -5.5960   65.2380   20.7430 S.3   181  CYS181     -0.0801
     89  N         -8.7980   62.6810   27.3580 N.3   183  ASN183     -0.1240
     90  CA        -9.9330   61.7470   27.2910 C.3   183  ASN183      0.1653
     91  C        -10.5640   61.7360   28.6840 C.2   183  ASN183      0.2266
     92  O         -9.8690   61.4290   29.6510 O.2   183  ASN183     -0.2867
     93  CB        -9.4660   60.3350   26.9640 C.3   183  ASN183      0.1155
     94  CG       -10.6080   59.3960   26.7690 C.2   183  ASN183      0.2627
     95  OD1      -11.7740   59.7740   26.9750 O.2   183  ASN183     -0.2716
     96  ND2      -10.2790   58.1730   26.3540 N.am  183  ASN183     -0.0877
     97  N          0.5400   59.8950   29.1220 N.3   211  ASP211     -0.1239
     98  CA        -0.2580   58.9750   28.3560 C.3   211  ASP211      0.1674
     99  C         -0.4510   59.6520   27.0200 C.2   211  ASP211      0.2266
    100  O         -1.1440   60.6520   26.9100 O.2   211  ASP211     -0.2867
    101  CB        -1.6120   58.6150   29.0070 C.3   211  ASP211      0.1410
    102  CG        -2.4440   57.6920   28.1400 C.2   211  ASP211      0.3668
    103  OD1       -2.1680   57.4500   26.9900 O.co2 211  ASP211     -0.2456
    104  OD2       -3.4850   57.1560   28.7290 O.co2 211  ASP211     -0.2456
    105  N         -1.9480   59.0480   23.6020 N.3   213  ALA213     -0.1231
    106  CA        -2.6530   58.1570   22.7160 C.3   213  ALA213      0.1694
    107  C         -3.1520   58.7490   21.4320 C.2   213  ALA213      0.2591
    108  O         -3.6890   58.0190   20.6090 O.2   213  ALA213     -0.2718
    109  CB        -3.8400   57.5670   23.4480 C.3   213  ALA213      0.0304
    110  N         -3.0170   60.0500   21.2730 N.am  214  ARG214     -0.1980
    111  CA        -3.5470   60.6930   20.0890 C.3   214  ARG214      0.1597
    112  C         -2.6190   61.7530   19.5290 C.2   214  ARG214      0.2287
    113  O         -3.0650   62.8070   19.0680 O.2   214  ARG214     -0.2864
    114  CB        -4.8970   61.3430   20.4330 C.3   214  ARG214      0.0334
    115  CG        -6.0620   60.3690   20.4050 C.3   214  ARG214      0.0492
    116  CD        -7.4360   60.9740   20.7230 C.3   214  ARG214      0.2205
    117  NE        -8.4280   59.8970   20.8030 N.pl3 214  ARG214     -0.0865
    118  CZ        -8.5210   59.0790   21.8480 C.cat 214  ARG214      0.5346
    119  NH1       -7.7510   59.2270   22.9150 N.pl3 214  ARG214      0.1354
    120  NH2       -9.4040   58.0910   21.8420 N.pl3 214  ARG214      0.1354
    121  N          0.5800   55.2740   21.9490 N.3   243  SER243     -0.1217
    122  CA        -0.2030   54.4170   21.1350 C.3   243  SER243      0.1889
    123  C         -0.2340   54.9250   19.7250 C.2   243  SER243      0.2288
    124  O         -0.2940   56.1360   19.4960 O.2   243  SER243     -0.2866
    125  CB        -1.6230   54.4130   21.6770 C.3   243  SER243      0.2089
    126  OG        -2.5000   53.6660   20.8500 O.3   243  SER243     -0.2183
    127  N         -2.5470   53.4480   17.7100 N.3   245  SER245     -0.1202
    128  CA        -3.8480   52.9970   17.2850 C.3   245  SER245      0.2020
    129  C         -4.6570   54.0750   16.6010 C.2   245  SER245      0.2618
    130  O         -5.3500   53.8010   15.6500 O.2   245  SER245     -0.2717
    131  CB        -4.6940   52.4400   18.4280 C.3   245  SER245      0.2103
    132  OG        -3.9700   51.5290   19.2270 O.3   245  SER245     -0.2182
    133  N         -4.6500   55.2950   17.0970 N.am  246  LYS246     -0.1979
    134  CA        -5.4980   56.2730   16.4450 C.3   246  LYS246      0.1596
    135  C         -4.8400   56.9170   15.2300 C.2   246  LYS246      0.2287
    136  O         -5.3970   56.9340   14.1420 O.2   246  LYS246     -0.2864
    137  CB        -6.1520   57.2860   17.4070 C.3   246  LYS246      0.0298
    138  CG        -7.0610   56.6570   18.4750 C.3   246  LYS246      0.0038
    139  CD        -6.2800   55.9240   19.5660 C.3   246  LYS246      0.0206
    140  CE        -7.0900   55.4490   20.7820 C.3   246  LYS246      0.1093
    141  NZ        -8.4900   55.0470   20.5040 N.3   246  LYS246     -0.1314
    142  N         -5.6040   50.1390   15.2260 N.3   251  TYR251     -0.1241
    143  CA        -6.3110   49.6910   16.4180 C.3   251  TYR251      0.1605
    144  C         -6.1510   48.2200   16.7940 C.2   251  TYR251      0.2264
    145  O         -5.6530   47.8970   17.8770 O.2   251  TYR251     -0.2867
    146  CB        -7.8030   49.9890   16.2560 C.3   251  TYR251      0.0534
    147  CG        -8.1300   51.4270   15.9000 C.ar  251  TYR251     -0.0201
    148  CD1       -8.1090   52.4260   16.8720 C.ar  251  TYR251     -0.0009
    149  CD2       -8.5590   51.7760   14.6210 C.ar  251  TYR251     -0.0009
    150  CE1       -8.4510   53.7430   16.5620 C.ar  251  TYR251      0.0417
    151  CE2       -8.9010   53.0890   14.2850 C.ar  251  TYR251      0.0417
    152  CZ        -8.8420   54.0750   15.2670 C.ar  251  TYR251      0.1957
    153  OH        -9.1660   55.3620   14.9560 O.3   251  TYR251     -0.2866
    154  N         -2.4640   46.4310   17.7820 N.3   254  ARG254     -0.1245
    155  CA        -1.8020   46.5680   19.0760 C.3   254  ARG254      0.1563
    156  C         -0.4100   47.1530   19.0010 C.2   254  ARG254      0.2260
    157  O          0.5830   46.4990   19.3580 O.2   254  ARG254     -0.2867
    158  CB        -1.7610   45.2220   19.8230 C.3   254  ARG254      0.0307
    159  CG        -3.1170   44.5200   19.8460 C.3   254  ARG254      0.0489
    160  CD        -4.2780   45.4770   20.1380 C.3   254  ARG254      0.2205
    161  NE        -4.2920   45.9760   21.5140 N.pl3 254  ARG254     -0.0865
    162  CZ        -4.5470   47.2400   21.8600 C.cat 254  ARG254      0.5346
    163  NH1       -4.8250   48.1680   20.9620 N.pl3 254  ARG254      0.1354
    164  NH2       -4.5230   47.5980   23.1420 N.pl3 254  ARG254      0.1354
    165  N        -12.7860   63.7400   21.3390 N.3   348  PHE348     -0.1241
    166  CA       -13.6670   63.9010   22.4830 C.3   348  PHE348      0.1605
    167  C        -14.0760   65.3070   22.8610 C.2   348  PHE348      0.2264
    168  O        -13.2570   66.2270   22.9180 O.2   348  PHE348     -0.2867
    169  CB       -12.9780   63.2580   23.7020 C.3   348  PHE348      0.0534
    170  CG       -13.1480   61.7830   23.6480 C.ar  348  PHE348     -0.0203
    171  CD1      -14.4190   61.2690   23.4090 C.ar  348  PHE348     -0.0042
    172  CD2      -12.0760   60.9000   23.7760 C.ar  348  PHE348     -0.0042
    173  CE1      -14.6470   59.8960   23.3420 C.ar  348  PHE348     -0.0003
    174  CE2      -12.2890   59.5210   23.7040 C.ar  348  PHE348     -0.0003
    175  CZ       -13.5690   59.0200   23.4770 C.ar  348  PHE348     -0.0000
@<TRIPOS>BOND
     1   136   135    2
     2   151   149   ar
     3   151   152   ar
     4   149   147   ar
     5   153   152    1
     6   142   143    1
     7   135   134    1
     8   152   150   ar
     9    34    33    1
    10   130   129    2
    11   147   146    1
    12   147   148   ar
    13    32    31    2
    14    31    30    1
    15   146   143    1
    16   143   144    1
    17   134   133    1
    18   134   137    1
    19   150   148   ar
    20   129   133   am
    21   129   128    1
    22   144   145    2
    23    33    30    1
    24    33    35    1
    25   128   127    1
    26   128   131    1
    27    30    29    1
    28   137   138    1
    29   154   155    1
    30   131   132    1
    31   138   139    1
    32    29    27   am
    33   156   155    1
    34   156   157    2
    35   113   112    2
    36   155   158    1
    37    28    27    2
    38   124   123    2
    39    20    19    2
    40   112   111    1
    41    27    26    1
    42   139   140    1
    43   123   122    1
    44    23    21    1
    45   158   159    1
    46   159   160    1
    47   111   114    1
    48   111   110    1
    49   160   161    1
    50   115   114    1
    51   115   116    1
    52   141   140    1
    53   108   107    2
    54    19    25   am
    55    19    18    1
    56   116   117    1
    57    88    87    1
    58    24    22    1
    59    26    25    1
    60   117   118    2
    61   126   125    1
    62   163   162    1
    63    22    21    1
    64    21    18    1
    65   122   125    1
    66   122   121    1
    67   110   107   am
    68   165   166    1
    69   107   106    1
    70    17    18    1
    71   161   162    2
    72   120   118    1
    73   118   119    1
    74   162   164    1
    75    36    37    1
    76    87    84    1
    77    37    38    1
    78   166   167    1
    79   166   169    1
    80   106   109    1
    81   106   105    1
    82   167   168    2
    83   173   171   ar
    84   173   175   ar
    85    38    40   am
    86    38    39    2
    87   171   170   ar
    88    84    83    1
    89    84    85    1
    90   175   174   ar
    91    40    41    1
    92   170   169    1
    93   170   172   ar
    94   174   172   ar
    95    86    85    2
    96    41    42    1
    97    15    14    1
    98    12    11    2
    99     7     5    1
   100    14    13    1
   101    14    16    1
   102     4     3    2
   103    10    11    1
   104    10    13    1
   105    10     9    1
   106    42    44   am
   107    42    43    2
   108    44    45    1
   109    96    94   am
   110     3     9   am
   111     3     2    1
   112    49    48    1
   113    94    93    1
   114    94    95    2
   115     5     2    1
   116     5     6    1
   117   100    99    2
   118    93    90    1
   119   103   102   ar
   120    48    45    1
   121    48    50    1
   122    99    98    1
   123    45    46    1
   124     2     1    1
   125    90    89    1
   126    90    91    1
   127     6     8    1
   128    67    68   ar
   129    67    65   ar
   130    46    47    2
   131    70    68   ar
   132    70    72   ar
   133    68    66   ar
   134   102   104   ar
   135   102   101    1
   136    65    64   ar
   137    72    71   ar
   138    75    76    2
   139    75    74    1
   140    98   101    1
   141    98    97    1
   142    91    92    2
   143    79    81   ar
   144    79    78   ar
   145    66    64   ar
   146    66    69   ar
   147    64    63    1
   148    77    74    1
   149    77    78    1
   150    71    69   ar
   151    74    73    1
   152    58    56    1
   153    51    52    1
   154    81    82   ar
   155    78    80   ar
   156    63    60    1
   157    56    55    1
   158    56    57    1
   159    55    52    1
   160    60    59    1
   161    60    61    1
   162    52    53    1
   163    82    80   ar
   164    61    62    2
   165    53    54    2
