@<TRIPOS>MOLECULE
tmp/1armA00.pdb
 134 131 0 0 0
SMALL
GASTEIGER

@<TRIPOS>ATOM
      1  N         -1.8930   21.6100   -5.2330 N.3    69  HIS69      -0.1241
      2  CA        -1.2840   22.2950   -4.0490 C.3    69  HIS69       0.1621
      3  C         -2.0080   21.6340   -2.8970 C.2    69  HIS69       0.2264
      4  O         -3.1830   21.8860   -2.5950 O.2    69  HIS69      -0.2867
      5  CB        -1.5240   23.8690   -4.0330 C.3    69  HIS69       0.0745
      6  CG        -0.6700   24.5250   -5.0630 C.ar   69  HIS69       0.0817
      7  ND1       -1.0670   25.6200   -5.7080 N.ar   69  HIS69      -0.2268
      8  CD2        0.5610   24.1720   -5.5710 C.ar   69  HIS69       0.1154
      9  CE1       -0.1330   26.0180   -6.5750 C.ar   69  HIS69       0.1986
     10  NE2        0.8970   25.1420   -6.5230 N.ar   69  HIS69      -0.2212
     11  N         -2.2150   21.5500    0.4460 N.3    71  ARG71      -0.1231
     12  CA        -2.9320   22.1340    1.6010 C.3    71  ARG71       0.1694
     13  C         -4.3180   22.7090    1.2540 C.2    71  ARG71       0.2591
     14  O         -5.0520   23.0620    2.1790 O.2    71  ARG71      -0.2718
     15  CB        -2.1370   23.2970    2.2300 C.3    71  ARG71       0.0321
     16  CG        -2.1790   24.5310    1.3040 C.3    71  ARG71       0.0489
     17  CD        -1.2170   24.6220    0.1150 C.3    71  ARG71       0.2205
     18  NE        -1.1650   25.9580   -0.5280 N.pl3  71  ARG71      -0.0865
     19  CZ        -0.4860   27.0110   -0.0710 C.cat  71  ARG71       0.5346
     20  NH1        0.2280   26.9700    1.0920 N.pl3  71  ARG71       0.1354
     21  NH2       -0.5700   28.1170   -0.8500 N.pl3  71  ARG71       0.1354
     22  N         -4.6820   22.6760   -0.0370 N.am   72  GLU72      -0.1979
     23  CA        -5.9890   23.2430   -0.3860 C.3    72  GLU72       0.1602
     24  C         -7.0910   22.2060   -0.2620 C.2    72  GLU72       0.2287
     25  O         -7.6700   21.8330   -1.2590 O.2    72  GLU72      -0.2864
     26  CB        -5.7860   23.8260   -1.8100 C.3    72  GLU72       0.0415
     27  CG        -4.8610   25.1220   -1.7720 C.3    72  GLU72       0.1163
     28  CD        -4.1850   25.6130   -3.0690 C.2    72  GLU72       0.3649
     29  OE1       -4.8290   25.3850   -4.1980 O.co2  72  GLU72      -0.2457
     30  OE2       -3.1210   26.2470   -3.0170 O.co2  72  GLU72      -0.2457
     31  N          2.5390   22.8850    0.5210 N.3   127  ARG127     -0.1245
     32  CA         2.0540   23.1020   -0.8290 C.3   127  ARG127      0.1563
     33  C          2.6950   22.2610   -1.9740 C.2   127  ARG127      0.2260
     34  O          2.0510   21.8670   -2.9450 O.2   127  ARG127     -0.2867
     35  CB         2.3900   24.5680   -1.0500 C.3   127  ARG127      0.0307
     36  CG         2.2430   25.1650   -2.4390 C.3   127  ARG127      0.0489
     37  CD         2.9890   26.5330   -2.4460 C.3   127  ARG127      0.2205
     38  NE         3.0300   26.9940   -3.7960 N.pl3 127  ARG127     -0.0865
     39  CZ         2.0840   27.7880   -4.2690 C.cat 127  ARG127      0.5346
     40  NH1        1.0600   28.1860   -3.5030 N.pl3 127  ARG127      0.1354
     41  NH2        2.1180   28.1780   -5.5280 N.pl3 127  ARG127      0.1354
     42  N          2.6920   23.6120   -9.7740 N.3   144  ASN144     -0.1225
     43  CA         2.0030   24.5230  -10.6860 C.3   144  ASN144      0.1785
     44  C          2.9020   25.5940  -11.2640 C.2   144  ASN144      0.2597
     45  O          2.4950   26.6020  -11.8430 O.2   144  ASN144     -0.2718
     46  CB         0.6550   25.0650  -10.1840 C.3   144  ASN144      0.1169
     47  CG        -0.2500   25.4910  -11.3400 C.2   144  ASN144      0.2627
     48  OD1       -0.2950   24.8750  -12.4530 O.2   144  ASN144     -0.2716
     49  ND2       -0.9480   26.5700  -11.0500 N.am  144  ASN144     -0.0877
     50  N          4.1540   25.3040  -11.1570 N.am  145  ARG145     -0.1979
     51  CA         5.1730   26.1560  -11.7560 C.3   145  ARG145      0.1597
     52  C          6.0690   25.2430  -12.6110 C.2   145  ARG145      0.2287
     53  O          7.0620   25.7130  -13.1700 O.2   145  ARG145     -0.2864
     54  CB         6.0400   26.7880  -10.6420 C.3   145  ARG145      0.0334
     55  CG         5.2370   27.7810   -9.8550 C.3   145  ARG145      0.0492
     56  CD         4.8780   28.9250  -10.7600 C.3   145  ARG145      0.2205
     57  NE         4.5970   30.0710   -9.9160 N.pl3 145  ARG145     -0.0865
     58  CZ         3.5720   30.1410   -9.0920 C.cat 145  ARG145      0.5346
     59  NH1        2.6810   29.1560   -9.0450 N.pl3 145  ARG145      0.1354
     60  NH2        3.3910   31.2200   -8.3530 N.pl3 145  ARG145      0.1354
     61  N         -8.1870   24.9530   -7.4430 N.3   196  HIS196     -0.1226
     62  CA        -7.3250   25.4000   -6.3460 C.3   196  HIS196      0.1752
     63  C         -8.1580   26.1580   -5.3120 C.2   196  HIS196      0.2597
     64  O         -9.3630   26.3450   -5.4810 O.2   196  HIS196     -0.2718
     65  CB        -6.3350   26.4950   -6.9130 C.3   196  HIS196      0.0759
     66  CG        -5.3000   25.8770   -7.7690 C.ar  196  HIS196      0.0818
     67  ND1       -4.0110   25.8290   -7.3020 N.ar  196  HIS196     -0.2268
     68  CD2       -5.4170   25.3150   -9.0310 C.ar  196  HIS196      0.1154
     69  CE1       -3.3740   25.3370   -8.3740 C.ar  196  HIS196      0.1986
     70  NE2       -4.1830   24.9320   -9.4200 N.ar  196  HIS196     -0.2212
     71  N         -7.4740   26.6240   -4.2730 N.am  197  SER197     -0.1938
     72  CA        -8.0770   27.5360   -3.3680 C.3   197  SER197      0.2055
     73  C         -6.9170   28.3660   -2.8170 C.2   197  SER197      0.2643
     74  O         -5.7700   27.9080   -2.9430 O.2   197  SER197     -0.2714
     75  CB        -8.9680   26.9420   -2.2690 C.3   197  SER197      0.2130
     76  OG        -8.1340   26.4790   -1.1940 O.3   197  SER197     -0.2179
     77  N         -7.1760   29.5220   -2.1690 N.am  198  TYR198     -0.1959
     78  CA        -8.4760   30.2240   -2.0140 C.3   198  TYR198      0.1771
     79  C         -8.3770   31.5720   -2.7110 C.2   198  TYR198      0.2620
     80  O         -7.2810   31.9560   -3.0880 O.2   198  TYR198     -0.2715
     81  CB        -8.9510   30.4500   -0.5530 C.3   198  TYR198      0.0574
     82  CG        -7.9630   31.3340    0.1650 C.ar  198  TYR198     -0.0198
     83  CD1       -6.7890   30.7910    0.7110 C.ar  198  TYR198     -0.0009
     84  CD2       -8.1590   32.7160    0.2610 C.ar  198  TYR198     -0.0009
     85  CE1       -5.8690   31.5820    1.3960 C.ar  198  TYR198      0.0417
     86  CE2       -7.2170   33.5310    0.8970 C.ar  198  TYR198      0.0417
     87  CZ        -6.0770   32.9640    1.4700 C.ar  198  TYR198      0.1957
     88  OH        -5.1600   33.7280    2.1060 O.3   198  TYR198     -0.2866
     89  N         -9.4750   32.2390   -2.9040 N.am  199  SER199     -0.1950
     90  CA        -9.5400   33.6310   -3.4410 C.3   199  SER199      0.1924
     91  C        -10.8410   33.9220   -4.1710 C.2   199  SER199      0.2314
     92  O        -11.0900   35.0930   -4.4680 O.2   199  SER199     -0.2863
     93  CB        -8.3730   34.1050   -4.3900 C.3   199  SER199      0.2116
     94  OG        -7.3290   34.5580   -3.5680 O.3   199  SER199     -0.2180
     95  N         -4.2970   38.2360  -11.1110 N.3   247  ILE247     -0.1231
     96  CA        -3.4220   37.9110   -9.9650 C.3   247  ILE247      0.1692
     97  C         -2.0510   38.5190  -10.1060 C.2   247  ILE247      0.2592
     98  O         -1.7970   39.5850   -9.6040 O.2   247  ILE247     -0.2718
     99  CB        -3.2860   36.4660   -9.5680 C.3   247  ILE247      0.0266
    100  CG1       -4.6400   35.8730   -9.4170 C.3   247  ILE247      0.0019
    101  CG2       -2.6130   36.5240   -8.1970 C.3   247  ILE247      0.0020
    102  CD1       -4.6370   34.5350   -8.6670 C.3   247  ILE247      0.0001
    103  N         -1.1790   37.8310  -10.8270 N.am  248  TYR248     -0.1976
    104  CA         0.1750   38.2820  -11.0140 C.3   248  TYR248      0.1639
    105  C          0.7530   37.4230  -12.0770 C.2   248  TYR248      0.2290
    106  O          0.1520   36.4280  -12.4830 O.2   248  TYR248     -0.2864
    107  CB         1.0380   38.1790   -9.7250 C.3   248  TYR248      0.0560
    108  CG         0.8140   36.9280   -8.8510 C.ar  248  TYR248     -0.0198
    109  CD1        0.8220   35.6540   -9.4200 C.ar  248  TYR248     -0.0009
    110  CD2        0.6470   37.0240   -7.4640 C.ar  248  TYR248     -0.0009
    111  CE1        0.6450   34.5430   -8.6060 C.ar  248  TYR248      0.0417
    112  CE2        0.4660   35.9250   -6.6280 C.ar  248  TYR248      0.0417
    113  CZ         0.5270   34.6720   -7.2180 C.ar  248  TYR248      0.1957
    114  OH         0.2900   33.5570   -6.4590 O.3   248  TYR248     -0.2866
    115  N        -10.2930   29.1700   -8.2460 N.3   270  GLU270     -0.1245
    116  CA        -9.7270   29.3530   -6.9370 C.3   270  GLU270      0.1567
    117  C        -10.9880   29.3760   -6.0400 C.2   270  GLU270      0.2260
    118  O        -11.7370   30.3580   -6.1180 O.2   270  GLU270     -0.2867
    119  CB        -9.0230   30.7210   -6.8610 C.3   270  GLU270      0.0388
    120  CG        -7.6430   30.6440   -7.5450 C.3   270  GLU270      0.1160
    121  CD        -6.6290   30.0350   -6.6500 C.2   270  GLU270      0.3649
    122  OE1       -6.8460   29.5220   -5.5560 O.co2 270  GLU270     -0.2457
    123  OE2       -5.5380   30.0170   -7.2820 O.co2 270  GLU270     -0.2457
    124  N         -6.8990   28.5730    3.8140 N.3   279  PHE279     -0.1241
    125  CA        -6.7570   27.1730    3.5420 C.3   279  PHE279      0.1605
    126  C         -7.5180   26.2890    4.5460 C.2   279  PHE279      0.2264
    127  O         -7.7890   25.1010    4.2970 O.2   279  PHE279     -0.2867
    128  CB        -5.2570   26.8410    3.5380 C.3   279  PHE279      0.0534
    129  CG        -4.4960   27.6150    2.5040 C.ar  279  PHE279     -0.0203
    130  CD1       -4.8920   27.5670    1.1680 C.ar  279  PHE279     -0.0042
    131  CD2       -3.4250   28.3950    2.9210 C.ar  279  PHE279     -0.0042
    132  CE1       -4.2220   28.2960    0.1780 C.ar  279  PHE279     -0.0003
    133  CE2       -2.7300   29.1290    1.9500 C.ar  279  PHE279     -0.0003
    134  CZ        -3.1720   29.0900    0.6220 C.ar  279  PHE279     -0.0000
@<TRIPOS>BOND
     1    53    52    2
     2    52    51    1
     3   106   105    2
     4    48    47    2
     5   105   104    1
     6    45    44    2
     7    51    50    1
     8    51    54    1
     9    47    49   am
    10    47    46    1
    11    44    50   am
    12    44    43    1
    13    95    96    1
    14   104   103    1
    15   104   107    1
    16   103    97   am
    17    56    57    1
    18    56    55    1
    19    43    46    1
    20    43    42    1
    21    54    55    1
    22    97    96    1
    23    97    98    2
    24    96    99    1
    25    57    58    2
    26   107   108    1
    27    99   100    1
    28    99   101    1
    29   109   108   ar
    30   109   111   ar
    31    70    68   ar
    32    70    69   ar
    33   100   102    1
    34    58    59    1
    35    58    60    1
    36    68    66   ar
    37   108   110   ar
    38   111   113   ar
    39    69    67   ar
    40   115   116    1
    41    66    67   ar
    42    66    65    1
    43   120   119    1
    44   120   121    1
    45   110   112   ar
    46    61    62    1
    47   123   121   ar
    48   113   112   ar
    49   113   114    1
    50   116   119    1
    51   116   117    1
    52    65    62    1
    53   121   122   ar
    54     9    10   ar
    55     9     7   ar
    56    10     8   ar
    57    62    63    1
    58   118   117    2
    59     7     6   ar
    60     8     6   ar
    61    41    39    1
    62    64    63    2
    63    63    71   am
    64     1     2    1
    65     6     5    1
    66    92    91    2
    67    93    94    1
    68    93    90    1
    69    71    72    1
    70    39    38    2
    71    39    40    1
    72    29    28   ar
    73    91    90    1
    74     2     5    1
    75     2     3    1
    76    38    37    1
    77    90    89    1
    78    72    73    1
    79    72    75    1
    80    80    79    2
    81    28    30   ar
    82    28    27    1
    83    34    33    2
    84    74    73    2
    85    89    79   am
    86     3     4    2
    87    73    77   am
    88    79    78    1
    89    37    36    1
    90    36    35    1
    91    75    76    1
    92    77    78    1
    93    78    81    1
    94    33    32    1
    95    26    27    1
    96    26    23    1
    97    25    24    2
    98    35    32    1
    99    21    19    1
   100    32    31    1
   101    81    82    1
   102    18    19    2
   103    18    17    1
   104    23    24    1
   105    23    22    1
   106    19    20    1
   107    22    13   am
   108    17    16    1
   109    82    84   ar
   110    82    83   ar
   111   132   134   ar
   112   132   130   ar
   113    84    86   ar
   114    11    12    1
   115   134   133   ar
   116    83    85   ar
   117    86    87   ar
   118   130   129   ar
   119    13    12    1
   120    13    14    2
   121    16    15    1
   122    85    87   ar
   123    87    88    1
   124    12    15    1
   125   133   131   ar
   126   129   131   ar
   127   129   128    1
   128   128   125    1
   129   125   124    1
   130   125   126    1
   131   127   126    2
