@<TRIPOS>MOLECULE
tmp/1arzD01.pdb
 117 111 0 0 0
SMALL
GASTEIGER

@<TRIPOS>ATOM
      1  N         79.3620   60.7810    4.5600 N.3   102  THR102     -0.1218
      2  CA        77.9180   60.8520    4.2270 C.3   102  THR102      0.1862
      3  C         77.2720   62.1960    4.5430 C.2   102  THR102      0.2287
      4  O         77.8190   62.9990    5.2850 O.2   102  THR102     -0.2866
      5  CB        77.0620   59.8160    5.0130 C.3   102  THR102      0.1770
      6  OG1       77.2680   59.9980    6.4250 O.3   102  THR102     -0.2211
      7  CG2       77.3550   58.3580    4.5750 C.3   102  THR102      0.0375
      8  N         77.9320   54.8610    0.2340 N.3   125  ALA125     -0.1231
      9  CA        77.3560   55.3070    1.4950 C.3   125  ALA125      0.1694
     10  C         77.6620   54.3050    2.5840 C.2   125  ALA125      0.2592
     11  O         77.5180   54.5980    3.7550 O.2   125  ALA125     -0.2718
     12  CB        75.8430   55.5010    1.3500 C.3   125  ALA125      0.0304
     13  N         78.1250   53.1270    2.1790 N.am  126  ASN126     -0.1974
     14  CA        78.4420   52.0600    3.1260 C.3   126  ASN126      0.1688
     15  C         79.5200   51.1930    2.4920 C.2   126  ASN126      0.2292
     16  O         79.4170   50.8250    1.3160 O.2   126  ASN126     -0.2864
     17  CB        77.1930   51.2130    3.3900 C.3   126  ASN126      0.1181
     18  CG        77.3210   50.3370    4.6280 C.2   126  ASN126      0.2629
     19  OD1       76.7940   50.6790    5.6780 O.2   126  ASN126     -0.2716
     20  ND2       78.0180   49.2010    4.5110 N.am  126  ASN126     -0.0877
     21  N         71.6090   54.3610   14.6800 N.3   157  HIS157     -0.1226
     22  CA        73.0330   54.6000   14.8070 C.3   157  HIS157      0.1752
     23  C         73.3490   55.2310   16.1240 C.2   157  HIS157      0.2596
     24  O         72.5210   55.9510   16.6720 O.2   157  HIS157     -0.2718
     25  CB        73.5010   55.5590   13.7330 C.3   157  HIS157      0.0759
     26  CG        73.6580   54.9270   12.3920 C.ar  157  HIS157      0.0818
     27  ND1       72.7000   55.0350   11.4100 N.ar  157  HIS157     -0.2268
     28  CD2       74.6620   54.1880   11.8660 C.ar  157  HIS157      0.1154
     29  CE1       73.1040   54.3890   10.3310 C.ar  157  HIS157      0.1986
     30  NE2       74.2900   53.8670   10.5830 N.ar  157  HIS157     -0.2212
     31  N         74.5760   55.0200   16.5910 N.am  158  HIS158     -0.1975
     32  CA        75.0540   55.5790   17.8520 C.3   158  HIS158      0.1656
     33  C         74.6320   57.0600   18.0340 C.2   158  HIS158      0.2291
     34  O         74.3260   57.7770   17.0610 O.2   158  HIS158     -0.2864
     35  CB        76.5770   55.4590   17.8890 C.3   158  HIS158      0.0771
     36  CG        77.2420   56.0860   16.7060 C.ar  158  HIS158      0.0820
     37  ND1       77.4180   57.4480   16.5810 N.ar  158  HIS158     -0.2267
     38  CD2       77.6740   55.5420   15.5410 C.ar  158  HIS158      0.1154
     39  CE1       77.9220   57.7140   15.3910 C.ar  158  HIS158      0.1986
     40  NE2       78.0860   56.5740   14.7400 N.ar  158  HIS158     -0.2212
     41  N         76.0780   60.3120   15.5910 N.3   161  LYS161     -0.1245
     42  CA        75.8330   60.5910   14.1750 C.3   161  LYS161      0.1561
     43  C         75.0850   61.9110   14.0280 C.2   161  LYS161      0.2260
     44  O         74.2720   62.2770   14.8750 O.2   161  LYS161     -0.2867
     45  CB        75.1040   59.4340   13.4960 C.3   161  LYS161      0.0271
     46  CG        75.0560   59.5450   11.9570 C.3   161  LYS161      0.0035
     47  CD        74.6760   58.2000   11.2950 C.3   161  LYS161      0.0206
     48  CE        74.5830   58.3120    9.7780 C.3   161  LYS161      0.1093
     49  NZ        75.8530   58.6960    9.1260 N.3   161  LYS161     -0.1314
     50  N         73.8250   63.2000   10.7260 N.3   163  ASP163     -0.1239
     51  CA        72.9810   63.3590    9.5580 C.3   163  ASP163      0.1674
     52  C         71.8680   62.3250    9.6700 C.2   163  ASP163      0.2266
     53  O         72.1060   61.2020   10.1330 O.2   163  ASP163     -0.2867
     54  CB        73.7710   63.2230    8.2510 C.3   163  ASP163      0.1410
     55  CG        74.6140   61.9610    8.1940 C.2   163  ASP163      0.3668
     56  OD1       75.1800   61.5670    9.2460 O.co2 163  ASP163     -0.2456
     57  OD2       74.7450   61.3780    7.0910 O.co2 163  ASP163     -0.2456
     58  N         70.4850   57.9170    7.8510 N.3   166  SER166     -0.1202
     59  CA        71.7830   57.4490    7.4500 C.3   166  SER166      0.2020
     60  C         71.8670   57.4880    5.9340 C.2   166  SER166      0.2619
     61  O         70.8620   57.3070    5.2420 O.2   166  SER166     -0.2717
     62  CB        71.9820   56.0250    7.9490 C.3   166  SER166      0.2103
     63  OG        71.1820   55.1130    7.2100 O.3   166  SER166     -0.2182
     64  N         73.0550   57.7900    5.4270 N.am  167  GLY167     -0.1942
     65  CA        73.2390   57.8380    3.9880 C.3   167  GLY167      0.2014
     66  C         72.9430   56.4750    3.3900 C.2   167  GLY167      0.2639
     67  O         72.5600   56.3420    2.2260 O.2   167  GLY167     -0.2714
     68  N         73.0810   55.4480    4.2160 N.am  168  THR168     -0.1950
     69  CA        72.8360   54.1020    3.7700 C.3   168  THR168      0.1897
     70  C         71.3450   53.9390    3.5480 C.2   168  THR168      0.2313
     71  O         70.9000   53.3650    2.5430 O.2   168  THR168     -0.2863
     72  CB        73.3090   53.1090    4.8290 C.3   168  THR168      0.1794
     73  OG1       74.7140   53.2980    5.0670 O.3   168  THR168     -0.2208
     74  CG2       73.0680   51.6870    4.3690 C.3   168  THR168      0.0378
     75  N         76.6930   50.6850   16.0880 N.3   215  VAL215     -0.1231
     76  CA        77.4970   50.8360   14.8890 C.3   215  VAL215      0.1696
     77  C         76.5900   51.1020   13.7310 C.2   215  VAL215      0.2631
     78  O         76.7370   52.1060   13.0500 O.2   215  VAL215     -0.2714
     79  CB        78.3460   49.6210   14.5860 C.3   215  VAL215      0.0266
     80  CG1       79.2750   49.9330   13.4400 C.3   215  VAL215      0.0020
     81  CG2       79.1500   49.2340   15.8050 C.3   215  VAL215      0.0020
     82  N         75.6310   50.2160   13.5290 N.am  216  GLY216     -0.1732
     83  CA        74.7110   50.4290   12.4400 C.2   216  GLY216      0.1340
     84  C         73.7050   49.3260   12.2120 C.2   216  GLY216      0.2521
     85  O         74.1020   48.1890   11.9720 O.2   216  GLY216     -0.2816
     86  N         70.1160   48.5120   10.0200 N.3   218  HIS218     -0.1241
     87  CA        69.2050   48.9700    8.9820 C.3   218  HIS218      0.1621
     88  C         68.1870   47.9170    8.6080 C.2   218  HIS218      0.2264
     89  O         68.5330   46.7450    8.3710 O.2   218  HIS218     -0.2867
     90  CB        69.9640   49.3630    7.7120 C.3   218  HIS218      0.0745
     91  CG        70.8130   50.5910    7.8460 C.ar  218  HIS218      0.0817
     92  ND1       72.1380   50.5340    8.2250 N.ar  218  HIS218     -0.2268
     93  CD2       70.5460   51.8940    7.6040 C.ar  218  HIS218      0.1154
     94  CE1       72.6510   51.7530    8.2070 C.ar  218  HIS218      0.1986
     95  NE2       71.7050   52.5940    7.8330 N.ar  218  HIS218     -0.2212
     96  N         83.1400   48.6140   13.3100 N.3   238  ARG238     -0.1245
     97  CA        83.5720   49.5230   12.2820 C.3   238  ARG238      0.1563
     98  C         84.6740   48.9790   11.3330 C.2   238  ARG238      0.2260
     99  O         84.8610   49.4690   10.1990 O.2   238  ARG238     -0.2867
    100  CB        83.9780   50.8080   12.9500 C.3   238  ARG238      0.0307
    101  CG        83.2810   51.9820   12.3760 C.3   238  ARG238      0.0489
    102  CD        83.2340   53.1400   13.3500 C.3   238  ARG238      0.2205
    103  NE        82.7640   52.7140   14.6640 N.pl3 238  ARG238     -0.0865
    104  CZ        81.9480   53.4390   15.4240 C.cat 238  ARG238      0.5346
    105  NH1       81.5100   54.6250   14.9930 N.pl3 238  ARG238      0.1354
    106  NH2       81.5560   52.9680   16.6130 N.pl3 238  ARG238      0.1354
    107  N         83.8390   48.4010    7.4950 N.3   241  PHE241     -0.1241
    108  CA        83.8510   49.4910    6.5190 C.3   241  PHE241      0.1605
    109  C         85.2840   49.8020    6.1640 C.2   241  PHE241      0.2264
    110  O         85.5710   50.2590    5.0490 O.2   241  PHE241     -0.2867
    111  CB        83.2380   50.7790    7.0860 C.3   241  PHE241      0.0534
    112  CG        81.9200   50.5850    7.7580 C.ar  241  PHE241     -0.0203
    113  CD1       80.8710   49.9400    7.1170 C.ar  241  PHE241     -0.0042
    114  CD2       81.7290   51.0210    9.0430 C.ar  241  PHE241     -0.0042
    115  CE1       79.6580   49.7390    7.7760 C.ar  241  PHE241     -0.0003
    116  CE2       80.5120   50.8180    9.6910 C.ar  241  PHE241     -0.0003
    117  CZ        79.4920   50.1790    9.0550 C.ar  241  PHE241     -0.0000
@<TRIPOS>BOND
     1     8     9    1
     2    16    15    2
     3    12     9    1
     4     9    10    1
     5    13    10   am
     6    13    14    1
     7    67    66    2
     8    15    14    1
     9    71    70    2
    10    10    11    2
    11    14    17    1
    12    17    18    1
    13    66    65    1
    14    66    68   am
    15    70    69    1
    16    69    68    1
    17    69    72    1
    18    65    64    1
    19     2     3    1
    20     2     1    1
    21     2     5    1
    22    74    72    1
    23    20    18   am
    24     3     4    2
    25     7     5    1
    26    18    19    2
    27    72    73    1
    28     5     6    1
    29   110   109    2
    30    61    60    2
    31    64    60   am
    32    60    59    1
    33   109   108    1
    34   108   111    1
    35   108   107    1
    36   111   112    1
    37    57    55   ar
    38   113   112   ar
    39   113   115   ar
    40    63    62    1
    41    59    58    1
    42    59    62    1
    43    93    95   ar
    44    93    91   ar
    45    90    91    1
    46    90    87    1
    47   112   114   ar
    48   115   117   ar
    49    95    94   ar
    50    91    92   ar
    51    55    54    1
    52    55    56   ar
    53    94    92   ar
    54    54    51    1
    55    89    88    2
    56    88    87    1
    57    87    86    1
    58   114   116   ar
    59   117   116   ar
    60    49    48    1
    61    51    52    1
    62    51    50    1
    63    52    53    2
    64    48    47    1
    65    99    98    2
    66    29    30   ar
    67    29    27   ar
    68    30    28   ar
    69    47    46    1
    70    98    97    1
    71    27    26   ar
    72    28    26   ar
    73    46    45    1
    74    85    84    2
    75    84    83    1
    76    97   100    1
    77    97    96    1
    78   101   100    1
    79   101   102    1
    80    26    25    1
    81    83    82    2
    82    78    77    2
    83   102   103    1
    84    80    79    1
    85    45    42    1
    86    82    77    1
    87    77    76    1
    88    25    22    1
    89    43    42    1
    90    43    44    2
    91    42    41    1
    92    79    76    1
    93    79    81    1
    94   103   104    2
    95    21    22    1
    96    40    39   ar
    97    40    38   ar
    98    22    23    1
    99    76    75    1
   100   105   104    1
   101    39    37   ar
   102   104   106    1
   103    38    36   ar
   104    23    31   am
   105    23    24    2
   106    37    36   ar
   107    31    32    1
   108    36    35    1
   109    34    33    2
   110    32    35    1
   111    32    33    1
