@<TRIPOS>MOLECULE
tmp/1asaA01.pdb
 108 102 0 0 0
SMALL
GASTEIGER

@<TRIPOS>ATOM
      1  N       -126.9380   16.8450   71.4860 N.3    11  ASP11      -0.1239
      2  CA      -127.0560   15.8720   70.4010 C.3    11  ASP11       0.1674
      3  C       -127.6060   16.5840   69.1480 C.2    11  ASP11       0.2266
      4  O       -128.5920   17.3360   69.2300 O.2    11  ASP11      -0.2867
      5  CB      -128.0190   14.7180   70.7870 C.3    11  ASP11       0.1410
      6  CG      -128.0800   13.6100   69.7350 C.2    11  ASP11       0.3668
      7  OD1     -127.1590   12.7940   69.6560 O.co2  11  ASP11      -0.2456
      8  OD2     -129.0390   13.5670   68.9700 O.co2  11  ASP11      -0.2456
      9  N       -129.5950   15.6580   66.7050 N.3    13  ILE13      -0.1231
     10  CA      -130.9880   15.4300   66.3740 C.3    13  ILE13       0.1692
     11  C       -131.8900   15.7950   67.5490 C.2    13  ILE13       0.2591
     12  O       -132.7960   16.6230   67.4490 O.2    13  ILE13      -0.2718
     13  CB      -131.1110   13.9820   65.9730 C.3    13  ILE13       0.0266
     14  CG1     -130.2400   13.7080   64.7660 C.3    13  ILE13       0.0019
     15  CG2     -132.5860   13.6870   65.6830 C.3    13  ILE13       0.0020
     16  CD1     -130.1180   12.2310   64.4010 C.3    13  ILE13       0.0001
     17  N       -131.5790   15.2080   68.6950 N.am   14  LEU14      -0.1980
     18  CA      -132.3390   15.4440   69.9010 C.3    14  LEU14       0.1596
     19  C       -132.2370   16.8320   70.5030 C.2    14  LEU14       0.2287
     20  O       -133.2060   17.2640   71.1270 O.2    14  LEU14      -0.2864
     21  CB      -131.9400   14.3690   70.9180 C.3    14  LEU14       0.0297
     22  CG      -132.4010   12.9590   70.5040 C.3    14  LEU14       0.0022
     23  CD1     -132.0990   11.9360   71.5630 C.3    14  LEU14       0.0001
     24  CD2     -133.8910   12.9310   70.3910 C.3    14  LEU14       0.0001
     25  N       -136.3560   15.8510   63.9540 N.3    33  ILE33      -0.1231
     26  CA      -136.3970   14.4510   64.3280 C.3    33  ILE33       0.1692
     27  C       -137.3210   13.6260   63.4490 C.2    33  ILE33       0.2592
     28  O       -138.3410   14.0710   62.9380 O.2    33  ILE33      -0.2718
     29  CB      -136.7650   14.3430   65.8410 C.3    33  ILE33       0.0266
     30  CG1     -135.9670   13.1230   66.2560 C.3    33  ILE33       0.0019
     31  CG2     -138.2470   14.1760   66.1880 C.3    33  ILE33       0.0020
     32  CD1     -136.1490   12.6370   67.6930 C.3    33  ILE33       0.0001
     33  N       -136.8070   12.4130   63.2250 N.am   34  GLY34      -0.1957
     34  CA      -137.4040   11.4120   62.3760 C.3    34  GLY34       0.1869
     35  C       -138.6720   10.7600   62.9280 C.2    34  GLY34       0.2309
     36  O       -138.7410    9.5620   63.1630 O.2    34  GLY34      -0.2863
     37  N       -131.5010    1.4440   69.1190 N.3   104  THR104     -0.1218
     38  CA      -130.3150    1.9580   69.7820 C.3   104  THR104      0.1862
     39  C       -129.8400    0.9310   70.8050 C.2   104  THR104      0.2287
     40  O       -128.6500    0.5710   70.7840 O.2   104  THR104     -0.2866
     41  CB      -130.6230    3.3150   70.4610 C.3   104  THR104      0.1770
     42  OG1     -131.1140    4.1920   69.4510 O.3   104  THR104     -0.2211
     43  CG2     -129.3920    4.0370   70.9920 C.3   104  THR104      0.0375
     44  N       -126.1840    7.9630   60.3230 N.3   130  TRP130     -0.1241
     45  CA      -126.9270    8.4220   61.4880 C.3   130  TRP130      0.1605
     46  C       -125.8570    8.9050   62.4660 C.2   130  TRP130      0.2264
     47  O       -124.9820    8.1040   62.7990 O.2   130  TRP130     -0.2867
     48  CB      -127.7100    7.2260   62.0880 C.3   130  TRP130      0.0550
     49  CG      -128.5780    7.5050   63.3140 C.ar  130  TRP130      0.0003
     50  CD1     -129.4560    8.5680   63.3500 C.ar  130  TRP130      0.0946
     51  CD2     -128.6230    6.7570   64.4610 C.ar  130  TRP130      0.0152
     52  NE1     -130.0660    8.4960   64.5130 N.ar  130  TRP130     -0.2442
     53  CE2     -129.5970    7.4270   65.1940 C.ar  130  TRP130      0.0810
     54  CE3     -128.0090    5.6350   64.9600 C.ar  130  TRP130      0.0012
     55  CZ2     -129.9710    6.9820   66.4600 C.ar  130  TRP130      0.0191
     56  CZ3     -128.3640    5.1920   66.2050 C.ar  130  TRP130      0.0001
     57  CH2     -129.3350    5.8350   66.9490 C.ar  130  TRP130      0.0015
     58  N       -130.1270    6.7100   56.2930 N.3   183  ASN183     -0.1240
     59  CA      -130.1720    7.9120   57.0790 C.3   183  ASN183      0.1653
     60  C       -128.7230    8.4870   57.0720 C.2   183  ASN183      0.2266
     61  O       -127.8320    7.8540   57.5930 O.2   183  ASN183     -0.2867
     62  CB      -130.7030    7.4590   58.4300 C.3   183  ASN183      0.1155
     63  CG      -130.9210    8.5140   59.5070 C.2   183  ASN183      0.2627
     64  OD1     -131.4740    8.1900   60.5560 O.2   183  ASN183     -0.2716
     65  ND2     -130.4870    9.7580   59.4090 N.am  183  ASN183     -0.0877
     66  N       -136.1470    1.2890   59.1140 N.3   214  TYR214     -0.1241
     67  CA      -137.2000    1.7940   58.2550 C.3   214  TYR214      0.1605
     68  C       -137.7990    0.7380   57.3640 C.2   214  TYR214      0.2264
     69  O       -138.0010    0.9770   56.1790 O.2   214  TYR214     -0.2867
     70  CB      -136.6340    2.9210   57.4170 C.3   214  TYR214      0.0534
     71  CG      -136.4150    4.1490   58.2530 C.ar  214  TYR214     -0.0201
     72  CD1     -137.4530    5.0200   58.4000 C.ar  214  TYR214     -0.0009
     73  CD2     -135.2090    4.3720   58.8580 C.ar  214  TYR214     -0.0009
     74  CE1     -137.2840    6.1500   59.1520 C.ar  214  TYR214      0.0417
     75  CE2     -135.0420    5.4890   59.6100 C.ar  214  TYR214      0.0417
     76  CZ      -136.0810    6.3750   59.7550 C.ar  214  TYR214      0.1957
     77  OH      -135.9530    7.4760   60.5840 O.3   214  TYR214     -0.2866
     78  N       -140.2970    3.2700   64.1860 N.3   246  LYS246     -0.1245
     79  CA      -140.7860    3.9750   62.9970 C.3   246  LYS246      0.1561
     80  C       -142.0390    3.3300   62.3740 C.2   246  LYS246      0.2260
     81  O       -143.1010    3.9630   62.2790 O.2   246  LYS246     -0.2867
     82  CB      -139.6820    4.0150   61.9360 C.3   246  LYS246      0.0271
     83  CG      -138.8380    5.2950   62.0010 C.3   246  LYS246      0.0035
     84  CD      -137.3550    5.0340   62.2950 C.3   246  LYS246      0.0206
     85  CE      -136.7100    6.1300   63.1540 C.3   246  LYS246      0.1093
     86  NZ      -135.2440    6.1830   63.0300 N.3   246  LYS246     -0.1314
     87  N       -136.7900   11.0190   54.8650 N.3   348  PHE348     -0.1241
     88  CA      -135.8910   12.1540   54.7860 C.3   348  PHE348      0.1605
     89  C       -135.2990   12.5820   53.4580 C.2   348  PHE348      0.2264
     90  O       -134.7670   11.7600   52.6990 O.2   348  PHE348     -0.2867
     91  CB      -134.6540   11.9740   55.6550 C.3   348  PHE348      0.0534
     92  CG      -134.8480   11.6840   57.1180 C.ar  348  PHE348     -0.0203
     93  CD1     -135.5380   12.5630   57.9250 C.ar  348  PHE348     -0.0042
     94  CD2     -134.3370   10.4960   57.6210 C.ar  348  PHE348     -0.0042
     95  CE1     -135.7180   12.2480   59.2550 C.ar  348  PHE348     -0.0003
     96  CE2     -134.5230   10.1890   58.9550 C.ar  348  PHE348     -0.0003
     97  CZ      -135.2110   11.0700   59.7650 C.ar  348  PHE348     -0.0000
     98  N       -130.3510   17.4680   56.3090 N.3   374  ARG374     -0.1245
     99  CA      -131.4020   16.4490   56.3730 C.3   374  ARG374      0.1563
    100  C       -132.6640   17.0680   56.9190 C.2   374  ARG374      0.2260
    101  O       -132.6800   17.6030   58.0280 O.2   374  ARG374     -0.2867
    102  CB      -131.0660   15.2800   57.3110 C.3   374  ARG374      0.0307
    103  CG      -131.9160   14.0320   57.1370 C.3   374  ARG374      0.0489
    104  CD      -131.7310   13.1200   58.3530 C.3   374  ARG374      0.2205
    105  NE      -132.4720   13.5890   59.5280 N.pl3 374  ARG374     -0.0865
    106  CZ      -132.3930   13.0310   60.7520 C.cat 374  ARG374      0.5346
    107  NH1     -131.6210   11.9750   61.0190 N.pl3 374  ARG374      0.1354
    108  NH2     -133.0730   13.5740   61.7480 N.pl3 374  ARG374      0.1354
@<TRIPOS>BOND
     1    90    89    2
     2    89    88    1
     3    88    87    1
     4    88    91    1
     5    91    92    1
     6    69    68    2
     7    58    59    1
     8    98    99    1
     9    99   100    1
    10    99   102    1
    11   100   101    2
    12    60    59    1
    13    60    61    2
    14    59    62    1
    15    92    94   ar
    16    92    93   ar
    17   103   102    1
    18   103   104    1
    19    68    67    1
    20    70    71    1
    21    70    67    1
    22    94    96   ar
    23    93    95   ar
    24    71    72   ar
    25    71    73   ar
    26    67    66    1
    27   104   105    1
    28    72    74   ar
    29    62    63    1
    30    73    75   ar
    31    96    97   ar
    32    74    76   ar
    33    95    97   ar
    34    65    63   am
    35    63    64    2
    36   105   106    2
    37    75    76   ar
    38    76    77    1
    39    44    45    1
    40   106   107    1
    41   106   108    1
    42    45    48    1
    43    45    46    1
    44    82    83    1
    45    82    79    1
    46    83    84    1
    47    48    49    1
    48    81    80    2
    49    84    85    1
    50    80    79    1
    51    34    35    1
    52    34    33    1
    53    46    47    2
    54    35    36    2
    55    28    27    2
    56    79    78    1
    57    86    85    1
    58    33    27   am
    59    49    50   ar
    60    49    51   ar
    61    50    52   ar
    62    27    26    1
    63    25    26    1
    64    26    29    1
    65    16    14    1
    66    51    54   ar
    67    51    53   ar
    68    52    53   ar
    69    14    13    1
    70    54    56   ar
    71    53    55   ar
    72    15    13    1
    73    29    31    1
    74    29    30    1
    75    13    10    1
    76    56    57   ar
    77    30    32    1
    78    10     9    1
    79    10    11    1
    80    55    57   ar
    81    12    11    2
    82    11    17   am
    83    17    18    1
    84     8     6   ar
    85    37    38    1
    86     3     4    2
    87     3     2    1
    88    42    41    1
    89     7     6   ar
    90     6     5    1
    91    38    41    1
    92    38    39    1
    93    18    19    1
    94    18    21    1
    95    24    22    1
    96     2     5    1
    97     2     1    1
    98    41    43    1
    99    19    20    2
   100    22    21    1
   101    22    23    1
   102    40    39    2
