@<TRIPOS>MOLECULE
tmp/1ashA00.pdb
 216 210 0 0 0
SMALL
GASTEIGER

@<TRIPOS>ATOM
      1  N         15.8450  -20.2480   -7.0570 N.3    31  TYR31      -0.1241
      2  CA        17.0800  -21.0000   -7.1390 C.3    31  TYR31       0.1605
      3  C         17.5880  -21.0310   -8.5430 C.2    31  TYR31       0.2264
      4  O         18.8030  -21.0280   -8.7460 O.2    31  TYR31      -0.2867
      5  CB        16.8740  -22.3920   -6.6520 C.3    31  TYR31       0.0534
      6  CG        16.9240  -22.3410   -5.1470 C.ar   31  TYR31      -0.0201
      7  CD1       15.7670  -22.0840   -4.3900 C.ar   31  TYR31      -0.0009
      8  CD2       18.1550  -22.5030   -4.5200 C.ar   31  TYR31      -0.0009
      9  CE1       15.8700  -21.9850   -2.9990 C.ar   31  TYR31       0.0417
     10  CE2       18.2390  -22.4070   -3.1390 C.ar   31  TYR31       0.0417
     11  CZ        17.1110  -22.1450   -2.3940 C.ar   31  TYR31       0.1957
     12  OH        17.2300  -21.9990   -1.0390 O.3    31  TYR31      -0.2866
     13  N         19.6380  -17.8740   -8.7150 N.3    34  MET34      -0.1245
     14  CA        20.9870  -17.9310   -8.1610 C.3    34  MET34       0.1570
     15  C         21.9040  -18.9190   -8.8720 C.2    34  MET34       0.2261
     16  O         23.0800  -18.6160   -9.0380 O.2    34  MET34      -0.2867
     17  CB        21.0060  -18.2600   -6.6400 C.3    34  MET34       0.0387
     18  CG        20.4860  -19.4770   -5.9220 C.3    34  MET34       0.0595
     19  SD        21.1930  -19.4180   -4.2590 S.3    34  MET34      -0.1393
     20  CE        22.5650  -20.3520   -4.8100 C.3    34  MET34       0.0692
     21  N         27.8330  -19.6150   -5.6860 N.3    41  LEU41      -0.1245
     22  CA        27.0190  -19.9760   -4.5510 C.3    41  LEU41       0.1561
     23  C         26.5460  -21.4090   -4.6990 C.2    41  LEU41       0.2260
     24  O         26.2100  -22.0420   -3.7070 O.2    41  LEU41      -0.2867
     25  CB        25.8570  -18.9600   -4.4430 C.3    41  LEU41       0.0270
     26  CG        26.1720  -17.5380   -3.9050 C.3    41  LEU41       0.0019
     27  CD1       26.9480  -16.7400   -4.9210 C.3    41  LEU41       0.0001
     28  CD2       24.8860  -16.7540   -3.6820 C.3    41  LEU41       0.0001
     29  N         27.9110  -24.2650   -2.3230 N.3    44  TYR44      -0.1227
     30  CA        27.4820  -24.5810   -0.9800 C.3    44  TYR44       0.1736
     31  C         26.3970  -25.6320   -1.0180 C.2    44  TYR44       0.2595
     32  O         26.0080  -26.1550    0.0300 O.2    44  TYR44      -0.2718
     33  CB        26.9880  -23.3390   -0.3120 C.3    44  TYR44       0.0548
     34  CG        28.0990  -22.3170   -0.1520 C.ar   44  TYR44      -0.0200
     35  CD1       28.9080  -22.3370    0.9820 C.ar   44  TYR44      -0.0009
     36  CD2       28.2470  -21.3150   -1.0980 C.ar   44  TYR44      -0.0009
     37  CE1       29.8610  -21.3300    1.1710 C.ar   44  TYR44       0.0417
     38  CE2       29.1930  -20.3090   -0.9140 C.ar   44  TYR44       0.0417
     39  CZ        29.9980  -20.3150    0.2200 C.ar   44  TYR44       0.1957
     40  OH        30.9390  -19.3080    0.4130 O.3    44  TYR44      -0.2866
     41  N         25.9100  -25.9820   -2.2070 N.am   45  PHE45      -0.1976
     42  CA        24.8820  -26.9830   -2.4420 C.3    45  PHE45       0.1639
     43  C         25.4440  -28.3170   -2.8650 C.2    45  PHE45       0.2290
     44  O         25.4820  -28.7150   -4.0550 O.2    45  PHE45      -0.2864
     45  CB        23.8890  -26.4840   -3.4750 C.3    45  PHE45       0.0560
     46  CG        23.0390  -25.4000   -2.8530 C.ar   45  PHE45      -0.0200
     47  CD1       21.8830  -25.7730   -2.1650 C.ar   45  PHE45      -0.0042
     48  CD2       23.4040  -24.0510   -2.9460 C.ar   45  PHE45      -0.0042
     49  CE1       21.0820  -24.7880   -1.5730 C.ar   45  PHE45      -0.0003
     50  CE2       22.5990  -23.0840   -2.3500 C.ar   45  PHE45      -0.0003
     51  CZ        21.4400  -23.4430   -1.6720 C.ar   45  PHE45      -0.0000
     52  N         13.9590  -31.2070   -4.8180 N.3    61  PHE61      -0.1241
     53  CA        14.5790  -30.5830   -3.6660 C.3    61  PHE61       0.1605
     54  C         14.4610  -29.0660   -3.6900 C.2    61  PHE61       0.2264
     55  O         14.3170  -28.4290   -2.6310 O.2    61  PHE61      -0.2867
     56  CB        16.0500  -30.9940   -3.6180 C.3    61  PHE61       0.0534
     57  CG        16.9460  -30.1870   -2.6650 C.ar   61  PHE61      -0.0203
     58  CD1       17.0020  -30.5340   -1.3080 C.ar   61  PHE61      -0.0042
     59  CD2       17.7300  -29.1180   -3.1440 C.ar   61  PHE61      -0.0042
     60  CE1       17.8410  -29.8110   -0.4490 C.ar   61  PHE61      -0.0003
     61  CE2       18.5610  -28.4080   -2.2740 C.ar   61  PHE61      -0.0003
     62  CZ        18.6070  -28.7460   -0.9290 C.ar   61  PHE61      -0.0000
     63  N         13.1110  -26.4750   -0.8270 N.3    65  GLN65      -0.1245
     64  CA        14.0640  -25.5010   -0.3820 C.3    65  GLN65       0.1566
     65  C         13.6440  -24.0700   -0.7050 C.2    65  GLN65       0.2260
     66  O         13.7770  -23.1580    0.1260 O.2    65  GLN65      -0.2867
     67  CB        15.3860  -25.8740   -1.0080 C.3    65  GLN65       0.0367
     68  CG        16.5050  -24.9750   -0.5870 C.3    65  GLN65       0.0905
     69  CD        16.5690  -24.7250    0.9010 C.2    65  GLN65       0.2608
     70  OE1       16.2690  -25.6010    1.7040 O.2    65  GLN65      -0.2717
     71  NE2       16.9400  -23.5510    1.3700 N.am   65  GLN65      -0.0878
     72  N         11.3500  -23.0350    1.7910 N.3    68  LYS68      -0.1231
     73  CA        12.0220  -22.6630    3.0460 C.3    68  LYS68       0.1693
     74  C         12.6280  -21.2830    2.9800 C.2    68  LYS68       0.2591
     75  O         12.3650  -20.4700    3.8770 O.2    68  LYS68      -0.2718
     76  CB        13.1500  -23.6360    3.4500 C.3    68  LYS68       0.0285
     77  CG        12.5190  -24.9590    3.9200 C.3    68  LYS68       0.0035
     78  CD        13.6220  -25.9130    4.3650 C.3    68  LYS68       0.0206
     79  CE        13.1370  -27.3400    4.7300 C.3    68  LYS68       0.1093
     80  NZ        14.2650  -28.2600    4.9500 N.3    68  LYS68      -0.1314
     81  N         13.3410  -20.9320    1.9270 N.am   69  ILE69      -0.1980
     82  CA        13.8860  -19.6130    1.8940 C.3    69  ILE69       0.1595
     83  C         12.7960  -18.5950    1.5670 C.2    69  ILE69       0.2287
     84  O         12.9000  -17.5000    2.1020 O.2    69  ILE69      -0.2864
     85  CB        15.0530  -19.5490    0.8720 C.3    69  ILE69       0.0276
     86  CG1       15.7070  -18.1830    0.8970 C.3    69  ILE69       0.0022
     87  CG2       14.5170  -19.8480   -0.5250 C.3    69  ILE69       0.0022
     88  CD1       17.0180  -18.1870    0.1300 C.3    69  ILE69       0.0001
     89  N         11.3940  -17.6480    4.8990 N.3    72  ALA72      -0.1231
     90  CA        12.2890  -16.8150    5.7100 C.3    72  ALA72       0.1694
     91  C         12.3690  -15.3450    5.2750 C.2    72  ALA72       0.2592
     92  O         12.3920  -14.5100    6.1620 O.2    72  ALA72      -0.2718
     93  CB        13.7020  -17.3910    5.7240 C.3    72  ALA72       0.0304
     94  N         12.2660  -14.9580    4.0120 N.am   73  CYS73      -0.1970
     95  CA        12.1960  -13.5600    3.6120 C.3    73  CYS73       0.1712
     96  C         10.8690  -12.9640    4.0170 C.2    73  CYS73       0.2296
     97  O         10.8350  -11.8220    4.4580 O.2    73  CYS73      -0.2864
     98  CB        12.3130  -13.3880    2.1260 C.3    73  CYS73       0.0983
     99  SG        13.9780  -13.8400    1.5890 S.3    73  CYS73      -0.0798
    100  N         11.3010  -12.2980    7.7530 N.3    76  LEU76      -0.1245
    101  CA        12.1840  -11.2070    8.1750 C.3    76  LEU76       0.1561
    102  C         11.5430   -9.8870    7.9310 C.2    76  LEU76       0.2260
    103  O         11.7270   -9.0090    8.7510 O.2    76  LEU76      -0.2867
    104  CB        13.5110  -11.1870    7.4570 C.3    76  LEU76       0.0270
    105  CG        14.5510  -12.2240    7.8540 C.3    76  LEU76       0.0019
    106  CD1       15.4690  -12.4670    6.6630 C.3    76  LEU76       0.0001
    107  CD2       15.3360  -11.7730    9.0850 C.3    76  LEU76       0.0001
    108  N         18.4980  -18.0910   11.7750 N.3    93  LEU93      -0.1245
    109  CA        18.8110  -18.3800   10.3840 C.3    93  LEU93       0.1561
    110  C         20.2660  -18.7290   10.3070 C.2    93  LEU93       0.2260
    111  O         20.6060  -19.6610    9.5860 O.2    93  LEU93      -0.2867
    112  CB        18.6170  -17.1790    9.4520 C.3    93  LEU93       0.0270
    113  CG        17.5210  -17.0760    8.3830 C.3    93  LEU93       0.0019
    114  CD1       16.3930  -18.0480    8.6350 C.3    93  LEU93       0.0001
    115  CD2       16.9140  -15.6900    8.4100 C.3    93  LEU93       0.0001
    116  N         20.8390  -22.2310   11.8340 N.3    96  ARG96      -0.1231
    117  CA        20.3040  -23.2980   11.0070 C.3    96  ARG96       0.1694
    118  C         21.1910  -23.6150    9.8280 C.2    96  ARG96       0.2592
    119  O         21.0760  -24.6910    9.2660 O.2    96  ARG96      -0.2718
    120  CB        18.8910  -22.9350   10.4900 C.3    96  ARG96       0.0321
    121  CG        17.8610  -22.8460   11.6430 C.3    96  ARG96       0.0489
    122  CD        16.5070  -22.2660   11.2490 C.3    96  ARG96       0.2205
    123  NE        15.7110  -23.1830   10.4540 N.pl3  96  ARG96      -0.0865
    124  CZ        14.5370  -22.8100    9.9440 C.cat  96  ARG96       0.5346
    125  NH1       14.0690  -21.5910   10.1730 N.pl3  96  ARG96       0.1354
    126  NH2       13.8470  -23.6400    9.1540 N.pl3  96  ARG96       0.1354
    127  N         22.0710  -22.7400    9.3910 N.am   97  HIS97      -0.1976
    128  CA        22.9660  -23.1230    8.3290 C.3    97  HIS97       0.1656
    129  C         24.1500  -23.7730    9.0040 C.2    97  HIS97       0.2291
    130  O         24.6500  -24.8100    8.5840 O.2    97  HIS97      -0.2864
    131  CB        23.4280  -21.9130    7.5330 C.3    97  HIS97       0.0771
    132  CG        22.3520  -21.3400    6.6470 C.ar   97  HIS97       0.0820
    133  ND1       21.3880  -20.4190    7.0320 N.ar   97  HIS97      -0.2267
    134  CD2       22.2040  -21.7010    5.3200 C.ar   97  HIS97       0.1154
    135  CE1       20.6390  -20.2150    5.9370 C.ar   97  HIS97       0.1986
    136  NE2       21.0780  -20.9410    4.9550 N.ar   97  HIS97      -0.2212
    137  N         24.0360  -27.5660    9.8460 N.3   100  ASP100     -0.1239
    138  CA        24.3700  -28.4320    8.7430 C.3   100  ASP100      0.1674
    139  C         25.6670  -27.9960    8.0570 C.2   100  ASP100      0.2266
    140  O         25.8910  -28.2630    6.8740 O.2   100  ASP100     -0.2867
    141  CB        23.2430  -28.3780    7.7360 C.3   100  ASP100      0.1410
    142  CG        21.8640  -28.8490    8.1770 C.2   100  ASP100      0.3668
    143  OD1       21.1410  -28.0690    8.8020 O.co2 100  ASP100     -0.2456
    144  OD2       21.5040  -29.9880    7.8550 O.co2 100  ASP100     -0.2456
    145  N         26.8170  -25.3240    6.6300 N.3   102  VAL102     -0.1245
    146  CA        26.8050  -24.4650    5.4660 C.3   102  VAL102      0.1561
    147  C         27.4750  -23.2340    6.0790 C.2   102  VAL102      0.2260
    148  O         26.8340  -22.4130    6.7290 O.2   102  VAL102     -0.2867
    149  CB        25.3460  -24.2230    5.0350 C.3   102  VAL102      0.0252
    150  CG1       25.2910  -23.3550    3.8020 C.3   102  VAL102      0.0019
    151  CG2       24.6950  -25.5440    4.7250 C.3   102  VAL102      0.0019
    152  N         29.3620  -19.7440    5.5350 N.3   104  MET104     -0.1245
    153  CA        29.4340  -18.7680    4.4460 C.3   104  MET104      0.1570
    154  C         30.1160  -17.4790    4.8670 C.2   104  MET104      0.2261
    155  O         29.7480  -16.9860    5.9420 O.2   104  MET104     -0.2867
    156  CB        28.0270  -18.4310    3.9460 C.3   104  MET104      0.0387
    157  CG        27.5360  -19.6540    3.2290 C.3   104  MET104      0.0595
    158  SD        25.8260  -19.5820    2.7170 S.3   104  MET104     -0.1393
    159  CE        24.9850  -19.5730    4.2710 C.3   104  MET104      0.0692
    160  N         28.5070  -13.1060    1.5480 N.3   108  VAL108     -0.1231
    161  CA        27.5080  -13.7670    0.6850 C.3   108  VAL108      0.1692
    162  C         26.0980  -13.3690    1.1230 C.2   108  VAL108      0.2592
    163  O         25.1640  -13.3220    0.3080 O.2   108  VAL108     -0.2718
    164  CB        27.5080  -15.3350    0.6980 C.3   108  VAL108      0.0266
    165  CG1       28.9330  -15.7440    0.7710 C.3   108  VAL108      0.0020
    166  CG2       26.7220  -15.9670    1.8220 C.3   108  VAL108      0.0020
    167  N         25.9410  -13.0740    2.4320 N.am  109  TRP109     -0.1976
    168  CA        24.6550  -12.6550    2.9580 C.3   109  TRP109      0.1640
    169  C         24.3250  -11.3020    2.3670 C.2   109  TRP109      0.2290
    170  O         23.1610  -11.1550    1.9920 O.2   109  TRP109     -0.2864
    171  CB        24.6900  -12.5580    4.4730 C.3   109  TRP109      0.0576
    172  CG        25.0730  -13.8780    5.1330 C.ar  109  TRP109      0.0006
    173  CD1       26.3360  -14.1460    5.6160 C.ar  109  TRP109      0.0946
    174  CD2       24.2160  -14.9030    5.3630 C.ar  109  TRP109      0.0152
    175  NE1       26.2760  -15.3320    6.1780 N.ar  109  TRP109     -0.2442
    176  CE2       25.0290  -15.8260    6.0630 C.ar  109  TRP109      0.0810
    177  CE3       22.8790  -15.1360    5.0890 C.ar  109  TRP109      0.0012
    178  CZ2       24.4810  -17.0380    6.4890 C.ar  109  TRP109      0.0191
    179  CZ3       22.3440  -16.3560    5.5130 C.ar  109  TRP109      0.0001
    180  CH2       23.1270  -17.2900    6.2120 C.ar  109  TRP109      0.0015
    181  N         23.1830  -11.8330   -1.2470 N.3   112  PHE112     -0.1227
    182  CA        21.8600  -12.3780   -1.2980 C.3   112  PHE112      0.1736
    183  C         20.8770  -11.2690   -1.5560 C.2   112  PHE112      0.2595
    184  O         20.0980  -11.4270   -2.4910 O.2   112  PHE112     -0.2718
    185  CB        21.4410  -13.0550    0.0060 C.3   112  PHE112      0.0547
    186  CG        20.0330  -13.5790   -0.1670 C.ar  112  PHE112     -0.0202
    187  CD1       19.8300  -14.7740   -0.8510 C.ar  112  PHE112     -0.0042
    188  CD2       18.9380  -12.8680    0.3340 C.ar  112  PHE112     -0.0042
    189  CE1       18.5250  -15.2460   -1.0370 C.ar  112  PHE112     -0.0003
    190  CE2       17.6440  -13.3500    0.1400 C.ar  112  PHE112     -0.0003
    191  CZ        17.4320  -14.5300   -0.5470 C.ar  112  PHE112     -0.0000
    192  N         20.8840  -10.1410   -0.8450 N.am  113  TRP113     -0.1976
    193  CA        19.8330   -9.1640   -1.0620 C.3   113  TRP113      0.1640
    194  C         19.9400   -8.5330   -2.4110 C.2   113  TRP113      0.2290
    195  O         18.8830   -8.1540   -2.9330 O.2   113  TRP113     -0.2864
    196  CB        19.8220   -8.0870    0.0540 C.3   113  TRP113      0.0576
    197  CG        19.5350   -8.8430    1.3620 C.ar  113  TRP113      0.0006
    198  CD1       20.5760   -9.1460    2.2050 C.ar  113  TRP113      0.0946
    199  CD2       18.3250   -9.4010    1.7640 C.ar  113  TRP113      0.0152
    200  NE1       20.0420   -9.9230    3.1210 N.ar  113  TRP113     -0.2442
    201  CE2       18.7120  -10.1140    2.9110 C.ar  113  TRP113      0.0810
    202  CE3       16.9860   -9.4590    1.3440 C.ar  113  TRP113      0.0012
    203  CZ2       17.7590  -10.8620    3.6340 C.ar  113  TRP113      0.0191
    204  CZ3       16.0470  -10.1980    2.0680 C.ar  113  TRP113      0.0001
    205  CH2       16.4230  -10.9020    3.2020 C.ar  113  TRP113      0.0015
    206  N         20.0020   -6.7450    8.3090 N.3   141  PHE141     -0.1241
    207  CA        20.1900   -8.1920    8.4300 C.3   141  PHE141      0.1605
    208  C         21.6590   -8.5360    8.3800 C.2   141  PHE141      0.2264
    209  O         22.1750   -9.3530    9.1470 O.2   141  PHE141     -0.2867
    210  CB        19.4560   -8.8770    7.3060 C.3   141  PHE141      0.0534
    211  CG        19.7160  -10.3760    7.1120 C.ar  141  PHE141     -0.0203
    212  CD1       18.9970  -11.3330    7.8390 C.ar  141  PHE141     -0.0042
    213  CD2       20.6280  -10.8150    6.1430 C.ar  141  PHE141     -0.0042
    214  CE1       19.1700  -12.7090    7.5990 C.ar  141  PHE141     -0.0003
    215  CE2       20.7970  -12.1890    5.9050 C.ar  141  PHE141     -0.0003
    216  CZ        20.0700  -13.1300    6.6300 C.ar  141  PHE141     -0.0000
@<TRIPOS>BOND
     1    16    15    2
     2    15    14    1
     3     4     3    2
     4    13    14    1
     5     3     2    1
     6    14    17    1
     7     2     1    1
     8     2     5    1
     9     5     6    1
    10    17    18    1
    11    18    19    1
    12    21    22    1
    13     6     8   ar
    14     6     7   ar
    15    27    26    1
    16    52    53    1
    17    20    19    1
    18    23    22    1
    19    23    24    2
    20    22    25    1
    21     8    10   ar
    22    25    26    1
    23     7     9   ar
    24    44    43    2
    25    26    28    1
    26    54    53    1
    27    54    55    2
    28    53    56    1
    29    56    57    1
    30    45    46    1
    31    45    42    1
    32    59    57   ar
    33    59    61   ar
    34    10    11   ar
    35     9    11   ar
    36    48    46   ar
    37    48    50   ar
    38   195   194    2
    39    43    42    1
    40    46    47   ar
    41    57    58   ar
    42   184   183    2
    43    42    41    1
    44   194   193    1
    45    11    12    1
    46    50    51   ar
    47    29    30    1
    48    61    62   ar
    49    41    31   am
    50    47    49   ar
    51    51    49   ar
    52   183   182    1
    53   183   192   am
    54    58    60   ar
    55   182   181    1
    56   182   185    1
    57    36    38   ar
    58    36    34   ar
    59   193   192    1
    60   193   196    1
    61   189   187   ar
    62   189   191   ar
    63    31    30    1
    64    31    32    2
    65    67    68    1
    66    67    64    1
    67    30    33    1
    68    62    60   ar
    69    38    39   ar
    70   187   186   ar
    71    63    64    1
    72    65    64    1
    73    65    66    2
    74    68    69    1
    75   191   190   ar
    76    87    85    1
    77    33    34    1
    78   186   185    1
    79   186   188   ar
    80    34    35   ar
    81   196   197    1
    82    88    86    1
    83   190   188   ar
    84    39    40    1
    85    39    37   ar
    86   163   162    2
    87   161   164    1
    88   161   162    1
    89   161   160    1
    90   164   165    1
    91   164   166    1
    92    85    86    1
    93    85    82    1
    94    69    71   am
    95    69    70    2
    96    35    37   ar
    97   162   167   am
    98   202   199   ar
    99   202   204   ar
   100   197   199   ar
   101   197   198   ar
   102    83    82    1
   103    83    84    2
   104    99    98    1
   105   199   201   ar
   106    72    73    1
   107    82    81    1
   108    81    74   am
   109   170   169    2
   110   204   205   ar
   111    98    95    1
   112   198   200   ar
   113   169   168    1
   114   167   168    1
   115   158   157    1
   116   158   159    1
   117   201   200   ar
   118   201   203   ar
   119   168   171    1
   120    74    73    1
   121    74    75    2
   122    73    76    1
   123   205   203   ar
   124   157   156    1
   125    76    77    1
   126    95    94    1
   127    95    96    1
   128   150   149    1
   129    77    78    1
   130   156   153    1
   131    94    91   am
   132    96    97    2
   133    78    79    1
   134   153   154    1
   135   153   152    1
   136   171   172    1
   137   151   149    1
   138    79    80    1
   139   154   155    2
   140    89    90    1
   141   136   134   ar
   142   136   135   ar
   143   149   146    1
   144   177   174   ar
   145   177   179   ar
   146   172   174   ar
   147   172   173   ar
   148    91    90    1
   149    91    92    2
   150   134   132   ar
   151   174   176   ar
   152   146   147    1
   153   146   145    1
   154   179   180   ar
   155   173   175   ar
   156    90    93    1
   157   215   213   ar
   158   215   216   ar
   159   135   133   ar
   160   176   175   ar
   161   176   178   ar
   162   147   148    2
   163   213   211   ar
   164   180   178   ar
   165   216   214   ar
   166   132   133   ar
   167   132   131    1
   168   106   105    1
   169   140   139    2
   170   211   210    1
   171   211   212   ar
   172   210   207    1
   173   104   105    1
   174   104   101    1
   175   131   128    1
   176   214   212   ar
   177   141   142    1
   178   141   138    1
   179   100   101    1
   180   105   107    1
   181   144   142   ar
   182   102   101    1
   183   102   103    2
   184   139   138    1
   185   142   143   ar
   186   206   207    1
   187   128   129    1
   188   128   127    1
   189   208   207    1
   190   208   209    2
   191   113   115    1
   192   113   114    1
   193   113   112    1
   194   130   129    2
   195   138   137    1
   196   126   124    1
   197   119   118    2
   198   127   118   am
   199   112   109    1
   200   111   110    2
   201   118   117    1
   202   124   125    1
   203   124   123    2
   204   110   109    1
   205   109   108    1
   206   123   122    1
   207   120   117    1
   208   120   121    1
   209   117   116    1
   210   122   121    1
