@<TRIPOS>MOLECULE
tmp/1at1A00.pdb
 112 106 0 0 0
SMALL
GASTEIGER

@<TRIPOS>ATOM
      1  N         46.8780   30.6130   12.1820 N.3    55  THR55      -0.1218
      2  CA        46.6560   31.8120   11.4660 C.3    55  THR55       0.1862
      3  C         47.9780   32.3810   11.0180 C.2    55  THR55       0.2287
      4  O         48.0520   32.7950    9.8910 O.2    55  THR55      -0.2866
      5  CB        45.8480   32.7360   12.3960 C.3    55  THR55       0.1770
      6  OG1       44.7440   31.9100   12.7040 O.3    55  THR55      -0.2211
      7  CG2       45.3880   34.0870   11.8570 C.3    55  THR55       0.0375
      8  N         47.5100   40.3020   14.6660 N.3   105  ARG105     -0.1245
      9  CA        46.8970   39.6050   15.7880 C.3   105  ARG105      0.1563
     10  C         47.0870   40.3400   17.0950 C.2   105  ARG105      0.2260
     11  O         48.2000   40.7480   17.4650 O.2   105  ARG105     -0.2867
     12  CB        47.4580   38.2470   16.0350 C.3   105  ARG105      0.0307
     13  CG        46.2250   37.4340   15.9110 C.3   105  ARG105      0.0489
     14  CD        45.9050   36.6960   17.0950 C.3   105  ARG105      0.2205
     15  NE        46.4520   35.3820   16.9460 N.pl3 105  ARG105     -0.0865
     16  CZ        45.7790   34.3680   16.3080 C.cat 105  ARG105      0.5346
     17  NH1       46.2520   33.1460   16.2530 N.pl3 105  ARG105      0.1354
     18  NH2       44.6380   34.5250   15.6850 N.pl3 105  ARG105      0.1354
     19  N         37.3150   37.0630   14.5600 N.3   134  HIS134     -0.1241
     20  CA        38.3320   36.3260   13.8360 C.3   134  HIS134      0.1621
     21  C         37.7950   36.1530   12.4180 C.2   134  HIS134      0.2264
     22  O         37.4530   35.0100   12.0820 O.2   134  HIS134     -0.2867
     23  CB        38.5450   34.9820   14.5380 C.3   134  HIS134      0.0745
     24  CG        39.8430   34.1930   14.2860 C.ar  134  HIS134      0.0817
     25  ND1       40.8800   34.6330   13.6150 N.ar  134  HIS134     -0.2268
     26  CD2       40.1170   32.9070   14.6610 C.ar  134  HIS134      0.1154
     27  CE1       41.7330   33.6560   13.4950 C.ar  134  HIS134      0.1986
     28  NE2       41.2560   32.6220   14.1020 N.ar  134  HIS134     -0.2212
     29  N         38.8420   33.2240    9.9770 N.3   137  GLN137     -0.1245
     30  CA        38.5950   31.9020   10.5380 C.3   137  GLN137      0.1566
     31  C         37.3100   31.4790    9.9060 C.2   137  GLN137      0.2260
     32  O         37.2570   30.3750    9.3720 O.2   137  GLN137     -0.2867
     33  CB        38.3050   31.8330   12.0430 C.3   137  GLN137      0.0367
     34  CG        38.2560   30.4160   12.6960 C.3   137  GLN137      0.0905
     35  CD        39.4630   29.4710   12.5560 C.2   137  GLN137      0.2608
     36  OE1       40.6110   29.9110   12.6340 O.2   137  GLN137     -0.2717
     37  NE2       39.2950   28.1650   12.3780 N.am  137  GLN137     -0.0878
     38  N         35.0560   32.9620   22.7350 N.3   166  GLY166     -0.1210
     39  CA        35.1470   32.3960   21.4050 C.3   166  GLY166      0.1956
     40  C         34.9870   33.4470   20.3180 C.2   166  GLY166      0.2612
     41  O         33.8890   33.7300   19.8340 O.2   166  GLY166     -0.2717
     42  N         36.1070   34.0800   19.9580 N.am  167  ARG167     -0.1965
     43  CA        36.1720   35.0450   18.8820 C.3   167  ARG167      0.1729
     44  C         35.7390   34.2820   17.6090 C.2   167  ARG167      0.2616
     45  O         34.9500   34.7910   16.7820 O.2   167  ARG167     -0.2715
     46  CB        37.6050   35.6060   18.7840 C.3   167  ARG167      0.0348
     47  CG        38.7800   34.5840   18.7480 C.3   167  ARG167      0.0492
     48  CD        40.0990   34.8430   17.9860 C.3   167  ARG167      0.2205
     49  NE        40.9370   35.8990   18.5070 N.pl3 167  ARG167     -0.0865
     50  CZ        42.2190   35.7100   18.8030 C.cat 167  ARG167      0.5346
     51  NH1       42.9230   36.7820   19.2420 N.pl3 167  ARG167      0.1354
     52  NH2       42.7850   34.4850   18.7250 N.pl3 167  ARG167      0.1354
     53  N         36.1260   32.9970   17.4870 N.am  168  THR168     -0.1951
     54  CA        35.7060   32.1750   16.3540 C.3   168  THR168      0.1897
     55  C         34.1850   32.0560   16.1830 C.2   168  THR168      0.2313
     56  O         33.6020   32.2510   15.1080 O.2   168  THR168     -0.2863
     57  CB        36.2580   30.7590   16.4810 C.3   168  THR168      0.1794
     58  OG1       35.8870   30.3990   17.7890 O.3   168  THR168     -0.2208
     59  CG2       37.7790   30.5900   16.3330 C.3   168  THR168      0.0378
     60  N         37.7350   25.4220   22.1650 N.3   229  ARG229     -0.1245
     61  CA        38.6310   25.2130   23.3170 C.3   229  ARG229      0.1563
     62  C         38.3350   26.2820   24.3650 C.2   229  ARG229      0.2260
     63  O         38.1500   27.4250   23.9320 O.2   229  ARG229     -0.2867
     64  CB        40.0740   25.3760   22.8890 C.3   229  ARG229      0.0307
     65  CG        41.1320   25.5480   23.9660 C.3   229  ARG229      0.0489
     66  CD        42.2940   26.2780   23.3320 C.3   229  ARG229      0.2205
     67  NE        42.0540   27.7110   23.3540 N.pl3 229  ARG229     -0.0865
     68  CZ        42.7920   28.5330   24.1100 C.cat 229  ARG229      0.5346
     69  NH1       42.5540   29.8390   24.1040 N.pl3 229  ARG229      0.1354
     70  NH2       43.7440   28.0900   24.9320 N.pl3 229  ARG229      0.1354
     71  N         38.8930   29.4250   26.3840 N.3   231  GLN231     -0.1245
     72  CA        39.9270   30.4320   26.2080 C.3   231  GLN231      0.1566
     73  C         40.6660   30.7300   27.4920 C.2   231  GLN231      0.2260
     74  O         40.5770   31.8190   28.0450 O.2   231  GLN231     -0.2867
     75  CB        39.2880   31.6980   25.6590 C.3   231  GLN231      0.0367
     76  CG        38.6840   31.4540   24.2970 C.3   231  GLN231      0.0905
     77  CD        39.7050   31.0010   23.2650 C.2   231  GLN231      0.2608
     78  OE1       40.3830   31.8140   22.6320 O.2   231  GLN231     -0.2717
     79  NE2       39.8270   29.7100   23.0040 N.am  231  GLN231     -0.0878
     80  N         42.0070   33.9680   28.4480 N.3   234  ARG234     -0.1245
     81  CA        41.0730   35.0480   28.5600 C.3   234  ARG234      0.1563
     82  C         40.1780   35.0130   29.7950 C.2   234  ARG234      0.2260
     83  O         39.4390   35.9680   30.0680 O.2   234  ARG234     -0.2867
     84  CB        40.2740   35.0630   27.2610 C.3   234  ARG234      0.0307
     85  CG        41.2000   35.5570   26.1890 C.3   234  ARG234      0.0489
     86  CD        40.5160   35.6950   24.8390 C.3   234  ARG234      0.2205
     87  NE        41.2850   35.0160   23.7990 N.pl3 234  ARG234     -0.0865
     88  CZ        42.4080   35.5010   23.2410 C.cat 234  ARG234      0.5346
     89  NH1       43.0280   34.6770   22.4030 N.pl3 234  ARG234      0.1354
     90  NH2       42.8960   36.7250   23.4460 N.pl3 234  ARG234      0.1354
     91  N         38.1290   24.9130   15.3930 N.3   266  PRO266     -0.2102
     92  CA        39.1490   25.8910   15.0300 C.3   266  PRO266      0.1504
     93  C         40.5850   25.5500   15.3400 C.2   266  PRO266      0.2576
     94  O         41.4480   25.9390   14.5720 O.2   266  PRO266     -0.2718
     95  CB        38.7050   27.1550   15.7150 C.3   266  PRO266      0.0282
     96  CG        37.6250   26.7830   16.6590 C.3   266  PRO266      0.0208
     97  CD        36.9760   25.6020   16.0100 C.3   266  PRO266      0.0893
     98  N         40.7870   24.7310   16.3890 N.am  267  LEU267     -0.1967
     99  CA        42.0340   24.3070   17.0220 C.3   267  LEU267      0.1713
    100  C         42.8970   25.4300   17.6320 C.2   267  LEU267      0.2458
    101  O         42.6820   26.6010   17.3190 O.2   267  LEU267     -0.2730
    102  CB        42.8180   23.4230   16.0080 C.3   267  LEU267      0.0310
    103  CG        42.0360   22.1820   15.4730 C.3   267  LEU267      0.0022
    104  CD1       42.8810   21.3160   14.5860 C.3   267  LEU267      0.0001
    105  CD2       41.5840   21.3460   16.6170 C.3   267  LEU267      0.0001
    106  N         43.7530   25.2210   18.6480 N.am  268  PRO268     -0.2727
    107  CA        43.9830   23.9540   19.3140 C.3   268  PRO268      0.1402
    108  C         42.7990   23.3050   20.0260 C.2   268  PRO268      0.2269
    109  O         41.7700   23.8950   20.3790 O.2   268  PRO268     -0.2865
    110  CB        45.1320   24.2320   20.2630 C.3   268  PRO268      0.0296
    111  CG        45.5950   25.6170   19.9750 C.3   268  PRO268      0.0237
    112  CD        44.4070   26.2980   19.3920 C.3   268  PRO268      0.0939
@<TRIPOS>BOND
     1    32    31    2
     2     4     3    2
     3    31    30    1
     4    29    30    1
     5    30    33    1
     6     3     2    1
     7     2     1    1
     8     2     5    1
     9     7     5    1
    10    33    34    1
    11    22    21    2
    12    37    35   am
    13     5     6    1
    14    21    20    1
    15    35    36    2
    16    35    34    1
    17    27    25   ar
    18    27    28   ar
    19    25    24   ar
    20    20    23    1
    21    20    19    1
    22    28    26   ar
    23    24    23    1
    24    24    26   ar
    25    94    93    2
    26   104   103    1
    27     8     9    1
    28    92    93    1
    29    92    91    1
    30    92    95    1
    31    56    55    2
    32    93    98   am
    33    91    97    1
    34   103   102    1
    35   103   105    1
    36    18    16    1
    37    95    96    1
    38     9    12    1
    39     9    10    1
    40    13    12    1
    41    13    14    1
    42   102    99    1
    43    97    96    1
    44    55    54    1
    45    17    16    1
    46    16    15    2
    47    59    57    1
    48    54    57    1
    49    54    53    1
    50    98    99    1
    51    57    58    1
    52    45    44    2
    53    15    14    1
    54    99   100    1
    55    10    11    2
    56   101   100    2
    57    53    44   am
    58    44    43    1
    59   100   106   am
    60    48    49    1
    61    48    47    1
    62    49    50    2
    63   106   107    1
    64   106   112    1
    65    52    50    1
    66    47    46    1
    67    46    43    1
    68    50    51    1
    69    43    42    1
    70   107   108    1
    71   107   110    1
    72   112   111    1
    73    41    40    2
    74    42    40   am
    75   111   110    1
    76   108   109    2
    77    40    39    1
    78    39    38    1
    79    60    61    1
    80    89    88    1
    81    78    77    2
    82    64    61    1
    83    64    65    1
    84    79    77   am
    85    88    90    1
    86    88    87    2
    87    77    76    1
    88    61    62    1
    89    66    67    1
    90    66    65    1
    91    67    68    2
    92    87    86    1
    93    63    62    2
    94    69    68    1
    95    68    70    1
    96    76    75    1
    97    86    85    1
    98    75    72    1
    99    85    84    1
   100    72    71    1
   101    72    73    1
   102    84    81    1
   103    73    74    2
   104    80    81    1
   105    81    82    1
   106    82    83    2
