@<TRIPOS>MOLECULE
tmp/1at1A01.pdb
 106 103 0 0 0
SMALL
GASTEIGER

@<TRIPOS>ATOM
      1  N         49.6430   34.7700   20.1500 N.3    51  ALA51      -0.1231
      2  CA        50.3520   33.5380   19.8260 C.3    51  ALA51       0.1694
      3  C         49.6570   32.9560   18.6090 C.2    51  ALA51       0.2593
      4  O         48.5350   33.3530   18.2830 O.2    51  ALA51      -0.2718
      5  CB        50.2760   32.5030   20.9420 C.3    51  ALA51       0.0304
      6  N         50.3020   32.0700   17.8440 N.am   52  SER52      -0.1938
      7  CA        49.6520   31.4490   16.6950 C.3    52  SER52       0.2055
      8  C         50.5150   30.3690   16.1240 C.2    52  SER52       0.2644
      9  O         51.7270   30.4260   16.1260 O.2    52  SER52      -0.2714
     10  CB        49.3880   32.4620   15.5380 C.3    52  SER52       0.2130
     11  OG        48.5340   31.9930   14.5090 O.3    52  SER52      -0.2179
     12  N         49.8060   29.3900   15.6330 N.am   53  THR53      -0.1936
     13  CA        50.3870   28.4020   14.7700 C.3    53  THR53       0.2028
     14  C         49.6190   28.5920   13.4560 C.2    53  THR53       0.2642
     15  O         50.1690   29.0850   12.4710 O.2    53  THR53      -0.2714
     16  CB        50.1460   27.0340   15.3600 C.3    53  THR53       0.1808
     17  OG1       50.8330   27.0510   16.5690 O.3    53  THR53      -0.2208
     18  CG2       50.5560   25.8910   14.4470 C.3    53  THR53       0.0379
     19  N         48.3280   28.2000   13.4690 N.am   54  ARG54      -0.1963
     20  CA        47.4380   28.2540   12.3110 C.3    54  ARG54       0.1729
     21  C         47.2760   29.5470   11.5690 C.2    54  ARG54       0.2616
     22  O         47.5610   29.6070   10.4060 O.2    54  ARG54      -0.2715
     23  CB        46.0700   27.7470   12.7400 C.3    54  ARG54       0.0348
     24  CG        46.0150   26.2600   12.5610 C.3    54  ARG54       0.0492
     25  CD        45.0120   25.5570   13.4240 C.3    54  ARG54       0.2205
     26  NE        45.4030   25.7150   14.8230 N.pl3  54  ARG54      -0.0865
     27  CZ        46.3930   25.0550   15.4510 C.cat  54  ARG54       0.5346
     28  NH1       46.6910   25.4260   16.6880 N.pl3  54  ARG54       0.1354
     29  NH2       47.0530   24.0060   14.9400 N.pl3  54  ARG54       0.1354
     30  N         46.8780   30.6130   12.1820 N.am   55  THR55      -0.1951
     31  CA        46.6560   31.8120   11.4660 C.3    55  THR55       0.1897
     32  C         47.9780   32.3810   11.0180 C.2    55  THR55       0.2313
     33  O         48.0520   32.7950    9.8910 O.2    55  THR55      -0.2863
     34  CB        45.8480   32.7360   12.3960 C.3    55  THR55       0.1794
     35  OG1       44.7440   31.9100   12.7040 O.3    55  THR55      -0.2208
     36  CG2       45.3880   34.0870   11.8570 C.3    55  THR55       0.0378
     37  N         47.5100   40.3020   14.6660 N.3   105  ARG105     -0.1245
     38  CA        46.8970   39.6050   15.7880 C.3   105  ARG105      0.1563
     39  C         47.0870   40.3400   17.0950 C.2   105  ARG105      0.2260
     40  O         48.2000   40.7480   17.4650 O.2   105  ARG105     -0.2867
     41  CB        47.4580   38.2470   16.0350 C.3   105  ARG105      0.0307
     42  CG        46.2250   37.4340   15.9110 C.3   105  ARG105      0.0489
     43  CD        45.9050   36.6960   17.0950 C.3   105  ARG105      0.2205
     44  NE        46.4520   35.3820   16.9460 N.pl3 105  ARG105     -0.0865
     45  CZ        45.7790   34.3680   16.3080 C.cat 105  ARG105      0.5346
     46  NH1       46.2520   33.1460   16.2530 N.pl3 105  ARG105      0.1354
     47  NH2       44.6380   34.5250   15.6850 N.pl3 105  ARG105      0.1354
     48  N         37.3150   37.0630   14.5600 N.3   134  HIS134     -0.1241
     49  CA        38.3320   36.3260   13.8360 C.3   134  HIS134      0.1621
     50  C         37.7950   36.1530   12.4180 C.2   134  HIS134      0.2264
     51  O         37.4530   35.0100   12.0820 O.2   134  HIS134     -0.2867
     52  CB        38.5450   34.9820   14.5380 C.3   134  HIS134      0.0745
     53  CG        39.8430   34.1930   14.2860 C.ar  134  HIS134      0.0817
     54  ND1       40.8800   34.6330   13.6150 N.ar  134  HIS134     -0.2268
     55  CD2       40.1170   32.9070   14.6610 C.ar  134  HIS134      0.1154
     56  CE1       41.7330   33.6560   13.4950 C.ar  134  HIS134      0.1986
     57  NE2       41.2560   32.6220   14.1020 N.ar  134  HIS134     -0.2212
     58  N         38.8420   33.2240    9.9770 N.3   137  GLN137     -0.1245
     59  CA        38.5950   31.9020   10.5380 C.3   137  GLN137      0.1566
     60  C         37.3100   31.4790    9.9060 C.2   137  GLN137      0.2260
     61  O         37.2570   30.3750    9.3720 O.2   137  GLN137     -0.2867
     62  CB        38.3050   31.8330   12.0430 C.3   137  GLN137      0.0367
     63  CG        38.2560   30.4160   12.6960 C.3   137  GLN137      0.0905
     64  CD        39.4630   29.4710   12.5560 C.2   137  GLN137      0.2608
     65  OE1       40.6110   29.9110   12.6340 O.2   137  GLN137     -0.2717
     66  NE2       39.2950   28.1650   12.3780 N.am  137  GLN137     -0.0878
     67  N         36.1070   34.0800   19.9580 N.3   167  ARG167     -0.1231
     68  CA        36.1720   35.0450   18.8820 C.3   167  ARG167      0.1694
     69  C         35.7390   34.2820   17.6090 C.2   167  ARG167      0.2592
     70  O         34.9500   34.7910   16.7820 O.2   167  ARG167     -0.2718
     71  CB        37.6050   35.6060   18.7840 C.3   167  ARG167      0.0321
     72  CG        38.7800   34.5840   18.7480 C.3   167  ARG167      0.0489
     73  CD        40.0990   34.8430   17.9860 C.3   167  ARG167      0.2205
     74  NE        40.9370   35.8990   18.5070 N.pl3 167  ARG167     -0.0865
     75  CZ        42.2190   35.7100   18.8030 C.cat 167  ARG167      0.5346
     76  NH1       42.9230   36.7820   19.2420 N.pl3 167  ARG167      0.1354
     77  NH2       42.7850   34.4850   18.7250 N.pl3 167  ARG167      0.1354
     78  N         36.1260   32.9970   17.4870 N.am  168  THR168     -0.1953
     79  CA        35.7060   32.1750   16.3540 C.3   168  THR168      0.1897
     80  C         34.1850   32.0560   16.1830 C.2   168  THR168      0.2313
     81  O         33.6020   32.2510   15.1080 O.2   168  THR168     -0.2863
     82  CB        36.2580   30.7590   16.4810 C.3   168  THR168      0.1794
     83  OG1       35.8870   30.3990   17.7890 O.3   168  THR168     -0.2208
     84  CG2       37.7790   30.5900   16.3330 C.3   168  THR168      0.0378
     85  N         38.1290   24.9130   15.3930 N.3   266  PRO266     -0.2102
     86  CA        39.1490   25.8910   15.0300 C.3   266  PRO266      0.1504
     87  C         40.5850   25.5500   15.3400 C.2   266  PRO266      0.2576
     88  O         41.4480   25.9390   14.5720 O.2   266  PRO266     -0.2718
     89  CB        38.7050   27.1550   15.7150 C.3   266  PRO266      0.0282
     90  CG        37.6250   26.7830   16.6590 C.3   266  PRO266      0.0208
     91  CD        36.9760   25.6020   16.0100 C.3   266  PRO266      0.0893
     92  N         40.7870   24.7310   16.3890 N.am  267  LEU267     -0.1967
     93  CA        42.0340   24.3070   17.0220 C.3   267  LEU267      0.1713
     94  C         42.8970   25.4300   17.6320 C.2   267  LEU267      0.2458
     95  O         42.6820   26.6010   17.3190 O.2   267  LEU267     -0.2730
     96  CB        42.8180   23.4230   16.0080 C.3   267  LEU267      0.0310
     97  CG        42.0360   22.1820   15.4730 C.3   267  LEU267      0.0022
     98  CD1       42.8810   21.3160   14.5860 C.3   267  LEU267      0.0001
     99  CD2       41.5840   21.3460   16.6170 C.3   267  LEU267      0.0001
    100  N         43.7530   25.2210   18.6480 N.am  268  PRO268     -0.2727
    101  CA        43.9830   23.9540   19.3140 C.3   268  PRO268      0.1402
    102  C         42.7990   23.3050   20.0260 C.2   268  PRO268      0.2269
    103  O         41.7700   23.8950   20.3790 O.2   268  PRO268     -0.2865
    104  CB        45.1320   24.2320   20.2630 C.3   268  PRO268      0.0296
    105  CG        45.5950   25.6170   19.9750 C.3   268  PRO268      0.0237
    106  CD        44.4070   26.2980   19.3920 C.3   268  PRO268      0.0939
@<TRIPOS>BOND
     1    61    60    2
     2    33    32    2
     3    60    59    1
     4    58    59    1
     5    22    21    2
     6    59    62    1
     7    32    31    1
     8    31    30    1
     9    31    34    1
    10    21    30   am
    11    21    20    1
    12    36    34    1
    13    62    63    1
    14    51    50    2
    15    20    23    1
    16    20    19    1
    17    66    64   am
    18    34    35    1
    19    50    49    1
    20    15    14    2
    21    64    65    2
    22    64    63    1
    23    24    23    1
    24    24    25    1
    25    25    26    1
    26    14    19   am
    27    14    13    1
    28    56    54   ar
    29    56    57   ar
    30    54    53   ar
    31    49    52    1
    32    49    48    1
    33    57    55   ar
    34    53    52    1
    35    53    55   ar
    36    18    16    1
    37    11    10    1
    38    88    87    2
    39    98    97    1
    40    37    38    1
    41    13    16    1
    42    13    12    1
    43    26    27    2
    44    29    27    1
    45    86    87    1
    46    86    85    1
    47    86    89    1
    48    81    80    2
    49    87    92   am
    50    16    17    1
    51    85    91    1
    52    27    28    1
    53    97    96    1
    54    97    99    1
    55    10     7    1
    56    12     8   am
    57    47    45    1
    58    89    90    1
    59    38    41    1
    60    38    39    1
    61    42    41    1
    62    42    43    1
    63    96    93    1
    64    91    90    1
    65     8     9    2
    66     8     7    1
    67    80    79    1
    68    46    45    1
    69    45    44    2
    70    84    82    1
    71    79    82    1
    72    79    78    1
    73    92    93    1
    74    82    83    1
    75     7     6    1
    76    70    69    2
    77    44    43    1
    78    93    94    1
    79    39    40    2
    80    95    94    2
    81    78    69   am
    82    69    68    1
    83    94   100   am
    84     6     3   am
    85    73    74    1
    86    73    72    1
    87     4     3    2
    88    74    75    2
    89     3     2    1
    90   100   101    1
    91   100   106    1
    92    77    75    1
    93    72    71    1
    94    71    68    1
    95    75    76    1
    96    68    67    1
    97   101   102    1
    98   101   104    1
    99   106   105    1
   100     2     1    1
   101     2     5    1
   102   105   104    1
   103   102   103    2
