@<TRIPOS>MOLECULE
tmp/1at3B00.pdb
 107 102 0 0 0
SMALL
GASTEIGER

@<TRIPOS>ATOM
      1  N         30.0910   34.8210   47.1980 N.3    22  LEU22      -0.1245
      2  CA        29.7150   33.3840   47.1170 C.3    22  LEU22       0.1561
      3  C         30.0560   32.4790   48.2850 C.2    22  LEU22       0.2260
      4  O         29.4840   31.4100   48.4940 O.2    22  LEU22      -0.2867
      5  CB        30.2890   32.8070   45.8420 C.3    22  LEU22       0.0270
      6  CG        29.8910   33.5840   44.6000 C.3    22  LEU22       0.0019
      7  CD1       30.5150   32.9150   43.3990 C.3    22  LEU22       0.0001
      8  CD2       28.3740   33.6250   44.4840 C.3    22  LEU22       0.0001
      9  N         19.6530   24.9940   34.7440 N.3    44  ASP44      -0.1225
     10  CA        20.1730   26.3610   34.5440 C.3    44  ASP44       0.1805
     11  C         19.2530   27.5170   35.0470 C.2    44  ASP44       0.2597
     12  O         18.8750   28.4270   34.3090 O.2    44  ASP44      -0.2718
     13  CB        20.5220   26.5020   33.0540 C.3    44  ASP44       0.1424
     14  CG        21.6350   27.4890   32.7960 C.2    44  ASP44       0.3668
     15  OD1       22.6980   27.4010   33.4490 O.co2  44  ASP44      -0.2456
     16  OD2       21.4460   28.3430   31.9100 O.co2  44  ASP44      -0.2456
     17  N         18.8840   27.4470   36.3210 N.am   45  HIS45      -0.1975
     18  CA        18.0510   28.4920   36.9910 C.3    45  HIS45       0.1656
     19  C         16.7090   28.9400   36.3900 C.2    45  HIS45       0.2291
     20  O         15.9890   29.7900   36.9490 O.2    45  HIS45      -0.2864
     21  CB        18.9200   29.7050   37.3000 C.3    45  HIS45       0.0771
     22  CG        19.8410   29.4820   38.4520 C.ar   45  HIS45       0.0820
     23  ND1       21.2100   29.4090   38.3170 N.ar   45  HIS45      -0.2267
     24  CD2       19.5790   29.2360   39.7590 C.ar   45  HIS45       0.1154
     25  CE1       21.7510   29.1230   39.4850 C.ar   45  HIS45       0.1986
     26  NE2       20.7840   29.0140   40.3790 N.ar   45  HIS45      -0.2212
     27  N         26.5780   21.9710   39.9490 N.3   105  VAL105     -0.1231
     28  CA        25.3710   22.4100   40.7240 C.3   105  VAL105      0.1692
     29  C         25.6070   23.8490   41.0520 C.2   105  VAL105      0.2593
     30  O         26.7290   24.3340   41.0760 O.2   105  VAL105     -0.2718
     31  CB        25.1200   21.7220   42.1120 C.3   105  VAL105      0.0266
     32  CG1       24.2810   20.4980   41.9490 C.3   105  VAL105      0.0020
     33  CG2       26.3910   21.4350   42.8500 C.3   105  VAL105      0.0020
     34  N         24.5230   24.5050   41.4140 N.am  106  SER106     -0.1938
     35  CA        24.5730   25.8960   41.7490 C.3   106  SER106      0.2055
     36  C         23.4380   26.1200   42.7410 C.2   106  SER106      0.2643
     37  O         22.2710   25.8540   42.4680 O.2   106  SER106     -0.2714
     38  CB        24.3510   26.6480   40.4580 C.3   106  SER106      0.2130
     39  OG        24.3040   28.0370   40.7050 O.3   106  SER106     -0.2179
     40  N         23.8070   26.5100   43.9520 N.am  107  LEU107     -0.1963
     41  CA        22.8140   26.7490   45.0050 C.3   107  LEU107      0.1728
     42  C         22.4670   28.1780   45.0590 C.2   107  LEU107      0.2617
     43  O         23.3250   29.0260   45.2060 O.2   107  LEU107     -0.2715
     44  CB        23.3250   26.3390   46.3770 C.3   107  LEU107      0.0311
     45  CG        22.4350   26.8120   47.5370 C.3   107  LEU107      0.0022
     46  CD1       21.2190   25.9110   47.7080 C.3   107  LEU107      0.0001
     47  CD2       23.2450   26.8400   48.8110 C.3   107  LEU107      0.0001
     48  N         21.1830   28.4650   44.9240 N.am  108  SER108     -0.1936
     49  CA        20.7280   29.8620   45.0270 C.3   108  SER108      0.2055
     50  C         20.2850   30.0290   46.4700 C.2   108  SER108      0.2643
     51  O         19.7290   29.1030   47.0820 O.2   108  SER108     -0.2714
     52  CB        19.5690   30.1600   44.0820 C.3   108  SER108      0.2130
     53  OG        20.0000   30.1480   42.7430 O.3   108  SER108     -0.2179
     54  N         20.6170   31.1900   47.0260 N.am  109  THR109     -0.1950
     55  CA        20.2380   31.5580   48.4110 C.3   109  THR109      0.1897
     56  C         19.4410   32.8710   48.3160 C.2   109  THR109      0.2313
     57  O         19.7740   33.7550   47.5110 O.2   109  THR109     -0.2863
     58  CB        21.4530   31.8200   49.2850 C.3   109  THR109      0.1794
     59  OG1       22.3360   32.7100   48.6020 O.3   109  THR109     -0.2208
     60  CG2       22.1630   30.5360   49.5840 C.3   109  THR109      0.0378
     61  N         23.9520   22.7410   35.9640 N.3   122  CYS122     -0.1235
     62  CA        24.5130   23.6390   34.9670 C.3   122  CYS122      0.1677
     63  C         25.8550   23.0790   34.5120 C.2   122  CYS122      0.2270
     64  O         26.3150   22.0440   34.9890 O.2   122  CYS122     -0.2867
     65  CB        24.6440   25.0330   35.5510 C.3   122  CYS122      0.0956
     66  SG        25.6380   25.0540   37.0120 S.3   122  CYS122     -0.0801
     67  N         28.9010   24.9210   34.3120 N.3   124  ILE124     -0.1231
     68  CA        29.9780   25.3940   35.1640 C.3   124  ILE124      0.1692
     69  C         29.3190   26.3260   36.2190 C.2   124  ILE124      0.2593
     70  O         28.6280   27.2980   35.9000 O.2   124  ILE124     -0.2718
     71  CB        31.0590   26.1540   34.2750 C.3   124  ILE124      0.0266
     72  CG1       31.6950   25.2050   33.2470 C.3   124  ILE124      0.0019
     73  CG2       32.1900   26.7190   35.1160 C.3   124  ILE124      0.0020
     74  CD1       32.4810   24.0470   33.8530 C.3   124  ILE124      0.0001
     75  N         29.5060   25.9650   37.4900 N.am  125  GLY125     -0.1942
     76  CA        28.9500   26.7260   38.6110 C.3   125  GLY125      0.2014
     77  C         29.8810   27.8420   39.0410 C.2   125  GLY125      0.2639
     78  O         30.9990   27.9080   38.5940 O.2   125  GLY125     -0.2714
     79  N         29.4550   28.7160   39.9260 N.am  126  ARG126     -0.1963
     80  CA        30.3460   29.8260   40.3090 C.3   126  ARG126      0.1729
     81  C         31.1680   29.5780   41.5690 C.2   126  ARG126      0.2616
     82  O         32.0690   30.3300   41.9300 O.2   126  ARG126     -0.2715
     83  CB        29.5310   31.1070   40.4140 C.3   126  ARG126      0.0348
     84  CG        28.7860   31.3960   39.1490 C.3   126  ARG126      0.0492
     85  CD        28.6100   32.8660   38.9480 C.3   126  ARG126      0.2205
     86  NE        28.0270   33.5020   40.1210 N.pl3 126  ARG126     -0.0865
     87  CZ        28.2450   34.7690   40.4620 C.cat 126  ARG126      0.5346
     88  NH1       29.0400   35.5410   39.7220 N.pl3 126  ARG126      0.1354
     89  NH2       27.6680   35.2660   41.5530 N.pl3 126  ARG126      0.1354
     90  N         30.8030   28.5150   42.2650 N.am  127  ARG127     -0.1977
     91  CA        31.4850   28.1480   43.4960 C.3   127  ARG127      0.1597
     92  C         32.3370   26.9300   43.1730 C.2   127  ARG127      0.2287
     93  O         32.0110   26.1030   42.3210 O.2   127  ARG127     -0.2864
     94  CB        30.4720   27.8720   44.6240 C.3   127  ARG127      0.0334
     95  CG        29.7040   29.1140   45.1170 C.3   127  ARG127      0.0492
     96  CD        29.2660   28.9840   46.5880 C.3   127  ARG127      0.2205
     97  NE        27.8180   28.8430   46.7860 N.pl3 127  ARG127     -0.0865
     98  CZ        26.9460   29.8550   46.8840 C.cat 127  ARG127      0.5346
     99  NH1       27.2910   31.0840   46.6520 N.pl3 127  ARG127      0.1354
    100  NH2       25.6780   29.6510   47.0940 N.pl3 127  ARG127      0.1354
    101  N         32.0310   22.3930   43.0300 N.3   130  THR130     -0.1218
    102  CA        30.6490   22.0480   42.6780 C.3   130  THR130      0.1862
    103  C         30.5130   21.1590   41.4360 C.2   130  THR130      0.2287
    104  O         29.9570   21.5170   40.4190 O.2   130  THR130     -0.2866
    105  CB        29.8100   23.3070   42.4790 C.3   130  THR130      0.1770
    106  OG1       30.4630   24.1640   41.5260 O.3   130  THR130     -0.2211
    107  CG2       29.6390   24.0140   43.8160 C.3   130  THR130      0.0375
@<TRIPOS>BOND
     1    16    14   ar
     2    14    13    1
     3    14    15   ar
     4    13    10    1
     5    72    74    1
     6    72    71    1
     7    71    73    1
     8    71    68    1
     9    12    11    2
    10    67    68    1
    11    63    62    1
    12    63    64    2
    13    10     9    1
    14    10    11    1
    15    62    65    1
    16    62    61    1
    17    11    17   am
    18    68    69    1
    19    65    66    1
    20    70    69    2
    21    69    75   am
    22    17    18    1
    23    19    20    2
    24    19    18    1
    25    18    21    1
    26    21    22    1
    27    75    76    1
    28    23    22   ar
    29    23    25   ar
    30    22    24   ar
    31    78    77    2
    32    76    77    1
    33    85    84    1
    34    85    86    1
    35    77    79   am
    36    84    83    1
    37    25    26   ar
    38    88    87    1
    39    24    26   ar
    40    79    80    1
    41    27    28    1
    42    86    87    2
    43    80    83    1
    44    80    81    1
    45   104   103    2
    46    38    39    1
    47    38    35    1
    48    87    89    1
    49    28    29    1
    50    28    31    1
    51    29    30    2
    52    29    34   am
    53    34    35    1
    54   103   102    1
    55   106   105    1
    56    81    82    2
    57    81    90   am
    58    35    36    1
    59    32    31    1
    60    31    33    1
    61    90    91    1
    62    93    92    2
    63    37    36    2
    64   105   102    1
    65   105   107    1
    66   102   101    1
    67    36    40   am
    68    53    52    1
    69    92    91    1
    70     7     6    1
    71    91    94    1
    72    40    41    1
    73    52    49    1
    74     8     6    1
    75     6     5    1
    76    94    95    1
    77    48    49    1
    78    48    42   am
    79    41    42    1
    80    41    44    1
    81    49    50    1
    82    42    43    2
    83    95    96    1
    84     5     2    1
    85    44    45    1
    86    50    54   am
    87    50    51    2
    88    96    97    1
    89    99    98    1
    90    97    98    2
    91    98   100    1
    92    54    55    1
    93     2     1    1
    94     2     3    1
    95    57    56    2
    96    45    46    1
    97    45    47    1
    98     3     4    2
    99    56    55    1
   100    55    58    1
   101    59    58    1
   102    58    60    1
