@<TRIPOS>MOLECULE
tmp/1atlA00.pdb
 161 158 0 0 0
SMALL
GASTEIGER

@<TRIPOS>ATOM
      1  N          2.2910   22.9870   -8.3760 N.3   103  GLU103     -0.1231
      2  CA         2.2670   21.7030   -7.6820 C.3   103  GLU103      0.1699
      3  C          1.5770   21.6770   -6.3260 C.2   103  GLU103      0.2592
      4  O          2.2260   21.7120   -5.2800 O.2   103  GLU103     -0.2718
      5  CB         3.6740   21.1300   -7.6000 C.3   103  GLU103      0.0402
      6  CG         4.2350   20.8430   -8.9870 C.3   103  GLU103      0.1161
      7  CD         5.4080   19.8700   -8.9810 C.2   103  GLU103      0.3649
      8  OE1        5.3460   18.8390   -8.2550 O.co2 103  GLU103     -0.2457
      9  OE2        6.3910   20.1400   -9.7160 O.co2 103  GLU103     -0.2457
     10  N          0.2470   21.6450   -6.3710 N.am  104  GLU104     -0.1966
     11  CA        -0.6020   21.6120   -5.1820 C.3   104  GLU104      0.1733
     12  C         -0.1980   22.6480   -4.1260 C.2   104  GLU104      0.2617
     13  O         -0.4190   22.4460   -2.9320 O.2   104  GLU104     -0.2715
     14  CB        -0.6080   20.2050   -4.5590 C.3   104  GLU104      0.0429
     15  CG        -1.0590   19.0570   -5.4890 C.3   104  GLU104      0.1163
     16  CD         0.0490   18.5590   -6.4370 C.2   104  GLU104      0.3649
     17  OE1        1.0830   18.0280   -5.9470 O.co2 104  GLU104     -0.2457
     18  OE2       -0.1190   18.6950   -7.6790 O.co2 104  GLU104     -0.2457
     19  N          0.3690   23.7680   -4.5720 N.am  105  THR105     -0.1937
     20  CA         0.8130   24.8200   -3.6620 C.3   105  THR105      0.2028
     21  C         -0.3660   25.6180   -3.1140 C.2   105  THR105      0.2642
     22  O         -1.1570   26.1820   -3.8810 O.2   105  THR105     -0.2714
     23  CB         1.7870   25.7870   -4.3670 C.3   105  THR105      0.1808
     24  OG1        2.8380   25.0340   -4.9850 O.3   105  THR105     -0.2208
     25  CG2        2.4030   26.7660   -3.3570 C.3   105  THR105      0.0379
     26  N         -0.4620   25.6700   -1.7860 N.am  106  LEU106     -0.1963
     27  CA        -1.5260   26.3980   -1.1010 C.3   106  LEU106      0.1728
     28  C         -1.0970   27.8020   -0.6960 C.2   106  LEU106      0.2617
     29  O         -1.9360   28.6700   -0.4590 O.2   106  LEU106     -0.2715
     30  CB        -1.9770   25.6330    0.1410 C.3   106  LEU106      0.0311
     31  CG        -2.4940   24.2260   -0.1330 C.3   106  LEU106      0.0022
     32  CD1       -3.0160   23.6310    1.1590 C.3   106  LEU106      0.0001
     33  CD2       -3.5770   24.2710   -1.1880 C.3   106  LEU106      0.0001
     34  N          0.2120   28.0090   -0.5990 N.am  107  GLY107     -0.1940
     35  CA         0.7430   29.3050   -0.2200 C.3   107  GLY107      0.2014
     36  C          2.2450   29.3330   -0.3980 C.2   107  GLY107      0.2638
     37  O          2.8430   28.2920   -0.6830 O.2   107  GLY107     -0.2714
     38  N          2.8390   30.5170   -0.2460 N.am  108  LEU108     -0.1977
     39  CA         4.2790   30.7240   -0.3960 C.3   108  LEU108      0.1596
     40  C          4.6620   32.0560    0.2500 C.2   108  LEU108      0.2287
     41  O          3.9470   33.0390    0.0920 O.2   108  LEU108     -0.2864
     42  CB         4.6410   30.7650   -1.8840 C.3   108  LEU108      0.0297
     43  CG         6.1370   30.7570   -2.1930 C.3   108  LEU108      0.0022
     44  CD1        6.7130   29.4580   -1.6960 C.3   108  LEU108      0.0001
     45  CD2        6.4010   30.9110   -3.6810 C.3   108  LEU108      0.0001
     46  N         -5.3360   29.1330    9.1280 N.3   136  VAL136     -0.1231
     47  CA        -4.1190   28.3570    9.3110 C.3   136  VAL136      0.1692
     48  C         -3.1350   28.6420    8.1730 C.2   136  VAL136      0.2592
     49  O         -1.9440   28.8660    8.4080 O.2   136  VAL136     -0.2718
     50  CB        -4.4170   26.8420    9.3570 C.3   136  VAL136      0.0266
     51  CG1       -3.1240   26.0420    9.5380 C.3   136  VAL136      0.0020
     52  CG2       -5.3790   26.5440   10.4820 C.3   136  VAL136      0.0020
     53  N         -3.6400   28.6560    6.9420 N.am  137  THR137     -0.1953
     54  CA        -2.8110   28.9080    5.7650 C.3   137  THR137      0.1897
     55  C         -2.1260   30.2750    5.8350 C.2   137  THR137      0.2313
     56  O         -0.9100   30.3690    5.6550 O.2   137  THR137     -0.2863
     57  CB        -3.6540   28.8170    4.4550 C.3   137  THR137      0.1794
     58  OG1       -4.3220   27.5540    4.4060 O.3   137  THR137     -0.2208
     59  CG2       -2.7760   28.9550    3.2240 C.3   137  THR137      0.0378
     60  N          0.4240   30.5210    8.6210 N.3   140  HIS140     -0.1226
     61  CA         1.6190   29.7780    8.2510 C.3   140  HIS140      0.1752
     62  C          2.5390   30.6510    7.3890 C.2   140  HIS140      0.2595
     63  O          3.7530   30.7140    7.6370 O.2   140  HIS140     -0.2718
     64  CB         1.2010   28.5050    7.5020 C.3   140  HIS140      0.0759
     65  CG         2.3430   27.6500    7.0350 C.ar  140  HIS140      0.0818
     66  ND1        2.5840   26.3930    7.5460 N.ar  140  HIS140     -0.2268
     67  CD2        3.2590   27.8380    6.0570 C.ar  140  HIS140      0.1154
     68  CE1        3.6320   25.8290    6.8580 C.ar  140  HIS140      0.1986
     69  NE2        4.0570   26.7200    5.9370 N.ar  140  HIS140     -0.2212
     70  N          1.9810   31.3280    6.3870 N.am  141  GLU141     -0.1979
     71  CA         2.7980   32.1800    5.5250 C.3   141  GLU141      0.1602
     72  C          3.3920   33.3560    6.3010 C.2   141  GLU141      0.2287
     73  O          4.5460   33.7370    6.0790 O.2   141  GLU141     -0.2864
     74  CB         2.0230   32.6320    4.2870 C.3   141  GLU141      0.0415
     75  CG         1.5290   31.4680    3.4150 C.3   141  GLU141      0.1163
     76  CD         2.5830   30.3830    3.1590 C.2   141  GLU141      0.3649
     77  OE1        3.8030   30.6640    3.1320 O.co2 141  GLU141     -0.2457
     78  OE2        2.1760   29.2220    2.9880 O.co2 141  GLU141     -0.2457
     79  N          6.4270   32.1270    8.1270 N.3   144  HIS144     -0.1241
     80  CA         7.6760   32.1330    7.3710 C.3   144  HIS144      0.1621
     81  C          8.2870   33.5410    7.3850 C.2   144  HIS144      0.2264
     82  O          9.4950   33.6920    7.5760 O.2   144  HIS144     -0.2867
     83  CB         7.4620   31.6730    5.9300 C.3   144  HIS144      0.0745
     84  CG         7.3100   30.1930    5.7790 C.ar  144  HIS144      0.0817
     85  ND1        8.0390   29.2910    6.5300 N.ar  144  HIS144     -0.2268
     86  CD2        6.5350   29.4560    4.9510 C.ar  144  HIS144      0.1154
     87  CE1        7.7140   28.0120    6.1470 C.ar  144  HIS144      0.1986
     88  NE2        6.7700   28.1010    5.1580 N.ar  144  HIS144     -0.2212
     89  N          9.7920   25.0350    8.6180 N.3   150  HIS150     -0.1241
     90  CA         8.8140   23.9710    8.8160 C.3   150  HIS150      0.1621
     91  C          9.0920   23.0470    9.9820 C.2   150  HIS150      0.2264
     92  O         10.2320   22.9010   10.4190 O.2   150  HIS150     -0.2867
     93  CB         8.7000   23.1070    7.5620 C.3   150  HIS150      0.0745
     94  CG         7.9390   23.7520    6.4500 C.ar  150  HIS150      0.0817
     95  ND1        8.1880   23.4730    5.1250 N.ar  150  HIS150     -0.2268
     96  CD2        6.9440   24.6720    6.4610 C.ar  150  HIS150      0.1154
     97  CE1        7.3610   24.2320    4.3390 C.ar  150  HIS150      0.1986
     98  NE2        6.5800   24.9830    5.1740 N.ar  150  HIS150     -0.2212
     99  N          0.5420   21.1210   14.4490 N.3   162  CYS162     -0.1221
    100  CA         1.4540   22.2500   14.4180 C.3   162  CYS162      0.1808
    101  C          1.1740   23.0700   13.1560 C.2   162  CYS162      0.2601
    102  O          1.0810   22.5250   12.0520 O.2   162  CYS162     -0.2717
    103  CB         2.8900   21.7630   14.4180 C.3   162  CYS162      0.0970
    104  SG         3.2970   20.7370   15.8560 S.3   162  CYS162     -0.0800
    105  N          1.0550   24.3840   13.3220 N.am  163  ILE163     -0.1979
    106  CA         0.7670   25.2690   12.1990 C.3   163  ILE163      0.1595
    107  C          1.8550   25.2390   11.1300 C.2   163  ILE163      0.2287
    108  O          1.5580   25.3010    9.9440 O.2   163  ILE163     -0.2864
    109  CB         0.5120   26.7270   12.6870 C.3   163  ILE163      0.0276
    110  CG1       -0.7540   26.7580   13.5520 C.3   163  ILE163      0.0022
    111  CG2        0.3770   27.6770   11.5020 C.3   163  ILE163      0.0022
    112  CD1       -0.9990   28.0380   14.2480 C.3   163  ILE163      0.0001
    113  N          3.6020   22.8160    9.9410 N.3   165  ARG165     -0.1231
    114  CA         3.8380   21.5500    9.2520 C.3   165  ARG165      0.1679
    115  C          3.9980   21.8950    7.7690 C.2   165  ARG165      0.2434
    116  O          3.3940   22.8500    7.2750 O.2   165  ARG165     -0.2733
    117  CB         2.6460   20.6150    9.3980 C.3   165  ARG165      0.0321
    118  CG         2.6420   19.7430   10.6180 C.3   165  ARG165      0.0489
    119  CD         1.3920   18.9120   10.5490 C.3   165  ARG165      0.2205
    120  NE         1.2610   18.0160   11.6760 N.pl3 165  ARG165     -0.0865
    121  CZ         0.6210   16.8560   11.6220 C.cat 165  ARG165      0.5346
    122  NH1        0.0630   16.4650   10.4830 N.pl3 165  ARG165      0.1354
    123  NH2        0.5190   16.1020   12.7100 N.pl3 165  ARG165      0.1354
    124  N          4.8090   21.1160    7.0400 N.am  166  PRO166     -0.2718
    125  CA         5.0190   21.3780    5.6090 C.3   166  PRO166      0.1535
    126  C          3.7570   21.2000    4.7480 C.2   166  PRO166      0.2599
    127  O          3.6380   21.7840    3.6710 O.2   166  PRO166     -0.2715
    128  CB         6.1340   20.3940    5.2410 C.3   166  PRO166      0.0310
    129  CG         5.9370   19.2510    6.2340 C.3   166  PRO166      0.0237
    130  CD         5.6290   19.9820    7.5120 C.3   166  PRO166      0.0939
    131  N          2.8090   20.4120    5.2400 N.am  167  GLY167     -0.1941
    132  CA         1.5750   20.1870    4.5110 C.3   167  GLY167      0.2014
    133  C          0.3670   20.4260    5.3950 C.2   167  GLY167      0.2639
    134  O          0.4250   20.2240    6.6090 O.2   167  GLY167     -0.2714
    135  N         -0.7350   20.8550    4.7950 N.am  168  LEU168     -0.1963
    136  CA        -1.9470   21.1200    5.5590 C.3   168  LEU168      0.1728
    137  C         -2.8430   19.8940    5.7040 C.2   168  LEU168      0.2616
    138  O         -3.2600   19.2960    4.7140 O.2   168  LEU168     -0.2715
    139  CB        -2.7410   22.2620    4.9270 C.3   168  LEU168      0.0311
    140  CG        -4.0330   22.6050    5.6700 C.3   168  LEU168      0.0022
    141  CD1       -3.7090   23.1190    7.0660 C.3   168  LEU168      0.0001
    142  CD2       -4.8130   23.6290    4.8790 C.3   168  LEU168      0.0001
    143  N         -3.1280   19.5360    6.9480 N.am  169  THR169     -0.1951
    144  CA        -3.9920   18.4090    7.2750 C.3   169  THR169      0.1897
    145  C         -5.1970   19.0490    7.9430 C.2   169  THR169      0.2313
    146  O         -5.0370   20.0050    8.7120 O.2   169  THR169     -0.2863
    147  CB        -3.3300   17.4780    8.3240 C.3   169  THR169      0.1794
    148  OG1       -2.0540   17.0280    7.8480 O.3   169  THR169     -0.2208
    149  CG2       -4.2290   16.2760    8.6180 C.3   169  THR169      0.0378
    150  N         -5.2820   23.8080   16.0070 N.3   174  TYR174     -0.1241
    151  CA        -3.9370   24.1510   15.5310 C.3   174  TYR174      0.1605
    152  C         -3.1810   25.0830   16.4830 C.2   174  TYR174      0.2264
    153  O         -3.7770   25.9670   17.1060 O.2   174  TYR174     -0.2867
    154  CB        -4.0150   24.8200   14.1640 C.3   174  TYR174      0.0534
    155  CG        -4.6530   23.9690   13.0930 C.ar  174  TYR174     -0.0201
    156  CD1       -6.0390   23.9270   12.9470 C.ar  174  TYR174     -0.0009
    157  CD2       -3.8720   23.2390   12.2050 C.ar  174  TYR174     -0.0009
    158  CE1       -6.6330   23.1820   11.9460 C.ar  174  TYR174      0.0417
    159  CE2       -4.4530   22.4870   11.1880 C.ar  174  TYR174      0.0417
    160  CZ        -5.8450   22.4630   11.0640 C.ar  174  TYR174      0.1957
    161  OH        -6.4800   21.7370   10.0690 O.3   174  TYR174     -0.2866
@<TRIPOS>BOND
     1     9     7   ar
     2     6     7    1
     3     6     5    1
     4     7     8   ar
     5     1     2    1
     6     2     5    1
     7     2     3    1
     8    18    16   ar
     9    16    17   ar
    10    16    15    1
    11    10     3   am
    12    10    11    1
    13     3     4    2
    14    15    14    1
    15    11    14    1
    16    11    12    1
    17    24    23    1
    18    19    12   am
    19    19    20    1
    20    23    20    1
    21    23    25    1
    22    12    13    2
    23    22    21    2
    24    45    43    1
    25    20    21    1
    26    21    26   am
    27    43    42    1
    28    43    44    1
    29    42    39    1
    30    26    27    1
    31    33    31    1
    32    27    28    1
    33    27    30    1
    34    28    34   am
    35    28    29    2
    36    37    36    2
    37    34    35    1
    38    36    38   am
    39    36    35    1
    40    39    38    1
    41    39    40    1
    42    31    30    1
    43    31    32    1
    44    41    40    2
    45    78    76   ar
    46    77    76   ar
    47    76    75    1
    48    59    57    1
    49    75    74    1
    50   127   126    2
    51    74    71    1
    52    97    95   ar
    53    97    98   ar
    54    58    57    1
    55    57    54    1
    56   132   131    1
    57   132   133    1
    58   138   137    2
    59   126   131   am
    60   126   125    1
    61   135   133   am
    62   135   136    1
    63   142   140    1
    64   139   136    1
    65   139   140    1
    66    86    88   ar
    67    86    84   ar
    68    95    94   ar
    69    88    87   ar
    70    98    96   ar
    71   128   125    1
    72   128   129    1
    73   133   134    2
    74    71    72    1
    75    71    70    1
    76   136   137    1
    77   125   124    1
    78    56    55    2
    79   140   141    1
    80   137   143   am
    81    54    55    1
    82    54    53    1
    83    84    83    1
    84    84    85   ar
    85    83    80    1
    86    69    67   ar
    87    69    68   ar
    88    67    65   ar
    89    73    72    2
    90    87    85   ar
    91   129   130    1
    92    70    62   am
    93    94    96   ar
    94    94    93    1
    95    68    66   ar
    96    53    48   am
    97   143   144    1
    98    65    64    1
    99    65    66   ar
   100   124   130    1
   101   124   115   am
   102   116   115    2
   103   144   145    1
   104   144   147    1
   105    80    81    1
   106    80    79    1
   107    81    82    2
   108    62    63    2
   109    62    61    1
   110    64    61    1
   111    93    90    1
   112   115   114    1
   113   148   147    1
   114   145   146    2
   115    48    49    2
   116    48    47    1
   117    61    60    1
   118   147   149    1
   119    89    90    1
   120    90    91    1
   121    46    47    1
   122   114   117    1
   123   114   113    1
   124    47    50    1
   125    50    51    1
   126    50    52    1
   127   117   118    1
   128   108   107    2
   129    91    92    2
   130   161   160    1
   131   122   121    1
   132   119   118    1
   133   119   120    1
   134   160   159   ar
   135   160   158   ar
   136   107   106    1
   137   159   157   ar
   138   111   109    1
   139   121   120    2
   140   121   123    1
   141   158   156   ar
   142   102   101    2
   143   106   109    1
   144   106   105    1
   145   157   155   ar
   146   109   110    1
   147   156   155   ar
   148   155   154    1
   149   101   105   am
   150   101   100    1
   151   110   112    1
   152   154   151    1
   153   100   103    1
   154   100    99    1
   155   103   104    1
   156   151   150    1
   157   151   152    1
   158   152   153    2
