@<TRIPOS>MOLECULE
tmp/1au0A00.pdb
 192 189 0 0 0
SMALL
GASTEIGER

@<TRIPOS>ATOM
      1  N         -3.4420   40.3570   69.2810 N.3    18  ASN18      -0.1225
      2  CA        -2.6280   40.2170   68.0790 C.3    18  ASN18       0.1785
      3  C         -1.5430   41.2810   68.1250 C.2    18  ASN18       0.2597
      4  O         -1.8350   42.4730   68.2190 O.2    18  ASN18      -0.2718
      5  CB        -3.4750   40.4180   66.8240 C.3    18  ASN18       0.1169
      6  CG        -2.6280   40.5340   65.5700 C.2    18  ASN18       0.2627
      7  OD1       -1.6640   39.7860   65.3840 O.2    18  ASN18      -0.2716
      8  ND2       -2.9460   41.5070   64.7300 N.am   18  ASN18      -0.0877
      9  N         -0.2870   40.8680   68.0480 N.am   19  GLN19      -0.1965
     10  CA         0.8080   41.8180   68.1080 C.3    19  GLN19       0.1733
     11  C          1.0230   42.6400   66.8530 C.2    19  GLN19       0.2617
     12  O          1.6820   43.6850   66.9030 O.2    19  GLN19      -0.2715
     13  CB         2.1050   41.1190   68.5010 C.3    19  GLN19       0.0408
     14  CG         2.4010   39.8710   67.7170 C.3    19  GLN19       0.0908
     15  CD         3.7900   39.3710   67.9690 C.2    19  GLN19       0.2608
     16  OE1        4.0270   38.1660   68.0700 O.2    19  GLN19      -0.2717
     17  NE2        4.7380   40.2910   68.0280 N.am   19  GLN19      -0.0878
     18  N          0.4900   42.1690   65.7280 N.am   20  GLY20      -0.1940
     19  CA         0.6400   42.8890   64.4760 C.3    20  GLY20       0.2014
     20  C          2.0260   42.7440   63.8750 C.2    20  GLY20       0.2639
     21  O          2.6360   41.6840   63.9830 O.2    20  GLY20      -0.2714
     22  N          2.5220   43.8130   63.2520 N.am   21  GLN21      -0.1963
     23  CA         3.8420   43.8110   62.6120 C.3    21  GLN21       0.1733
     24  C          4.9250   44.3140   63.5740 C.2    21  GLN21       0.2616
     25  O          6.0690   44.5690   63.1890 O.2    21  GLN21      -0.2715
     26  CB         3.8360   44.6880   61.3400 C.3    21  GLN21       0.0408
     27  CG         2.7100   44.4180   60.3380 C.3    21  GLN21       0.0908
     28  CD         2.5640   42.9490   59.9830 C.2    21  GLN21       0.2608
     29  OE1        3.5420   42.2700   59.6830 O.2    21  GLN21      -0.2717
     30  NE2        1.3350   42.4460   60.0350 N.am   21  GLN21      -0.0878
     31  N          4.5650   44.5080   64.8330 N.am   22  CYS22      -0.1954
     32  CA         5.5120   44.9900   65.8210 C.3    22  CYS22       0.1843
     33  C          6.0990   43.8070   66.5930 C.2    22  CYS22       0.2626
     34  O          5.3950   42.8520   66.9140 O.2    22  CYS22      -0.2714
     35  CB         4.8040   45.9840   66.7440 C.3    22  CYS22       0.0997
     36  SG         5.7990   46.6390   68.1090 S.3    22  CYS22      -0.0797
     37  N          7.4070   43.8190   66.8340 N.am   23  GLY23      -0.1954
     38  CA         8.0340   42.7290   67.5600 C.3    23  GLY23       0.1869
     39  C          7.9250   42.9640   69.0530 C.2    23  GLY23       0.2309
     40  O          8.9260   43.0120   69.7610 O.2    23  GLY23      -0.2863
     41  N          6.1450   40.9080   71.1790 N.3    25  CYS25      -0.1221
     42  CA         5.6300   39.7150   71.8250 C.3    25  CYS25       0.1808
     43  C          6.1250   39.6780   73.2730 C.2    25  CYS25       0.2601
     44  O          5.4340   39.1880   74.1700 O.2    25  CYS25      -0.2717
     45  CB         6.0060   38.4480   71.0440 C.3    25  CYS25       0.0970
     46  SG         7.7710   38.1120   70.8190 S.3    25  CYS25      -0.0800
     47  N          7.2970   40.2620   73.5170 N.am   26  TRP26      -0.1976
     48  CA         7.8650   40.3200   74.8570 C.3    26  TRP26       0.1640
     49  C          7.0250   41.2540   75.7450 C.2    26  TRP26       0.2290
     50  O          6.9320   41.0540   76.9530 O.2    26  TRP26      -0.2864
     51  CB         9.3240   40.7940   74.8090 C.3    26  TRP26       0.0576
     52  CG         9.4740   42.1870   74.3440 C.ar   26  TRP26       0.0006
     53  CD1        9.5340   42.6060   73.0580 C.ar   26  TRP26       0.0946
     54  CD2        9.4830   43.3690   75.1600 C.ar   26  TRP26       0.0152
     55  NE1        9.5650   43.9800   73.0100 N.ar   26  TRP26      -0.2442
     56  CE2        9.5330   44.4750   74.2840 C.ar   26  TRP26       0.0810
     57  CE3        9.4440   43.6040   76.5440 C.ar   26  TRP26       0.0012
     58  CZ2        9.5450   45.7960   74.7410 C.ar   26  TRP26       0.0191
     59  CZ3        9.4570   44.9170   77.0000 C.ar   26  TRP26       0.0001
     60  CH2        9.5060   45.9990   76.0970 C.ar   26  TRP26       0.0015
     61  N         11.5810   46.1180   68.0180 N.3    64  GLY64      -0.1210
     62  CA        12.7270   45.3330   67.6030 C.3    64  GLY64       0.1956
     63  C         12.9740   44.1880   68.5680 C.2    64  GLY64       0.2612
     64  O         13.5270   43.1470   68.2010 O.2    64  GLY64      -0.2717
     65  N         12.5670   44.3690   69.8200 N.am   65  GLY65      -0.1942
     66  CA        12.7690   43.3230   70.8010 C.3    65  GLY65       0.2014
     67  C         12.9170   43.7600   72.2420 C.2    65  GLY65       0.2639
     68  O         12.9750   44.9500   72.5610 O.2    65  GLY65      -0.2714
     69  N         12.9900   42.7770   73.1280 N.am   66  GLY66      -0.1939
     70  CA        13.1340   43.0700   74.5370 C.3    66  GLY66       0.2014
     71  C         12.9740   41.8630   75.4320 C.2    66  GLY66       0.2639
     72  O         12.4810   40.8240   75.0080 O.2    66  GLY66      -0.2714
     73  N         13.4050   41.9990   76.6790 N.am   67  TYR67      -0.1959
     74  CA        13.3150   40.9170   77.6500 C.3    67  TYR67       0.1771
     75  C         12.2210   41.2860   78.6320 C.2    67  TYR67       0.2619
     76  O         12.0750   42.4590   78.9820 O.2    67  TYR67      -0.2715
     77  CB        14.6320   40.7520   78.4060 C.3    67  TYR67       0.0574
     78  CG        15.8180   40.3790   77.5540 C.ar   67  TYR67      -0.0198
     79  CD1       16.0070   39.0630   77.1210 C.ar   67  TYR67      -0.0009
     80  CD2       16.7890   41.3220   77.2340 C.ar   67  TYR67      -0.0009
     81  CE1       17.1390   38.6980   76.4010 C.ar   67  TYR67       0.0417
     82  CE2       17.9190   40.9720   76.5110 C.ar   67  TYR67       0.0417
     83  CZ        18.0900   39.6580   76.0970 C.ar   67  TYR67       0.1957
     84  OH        19.2080   39.3080   75.3660 O.3    67  TYR67      -0.2866
     85  N         11.4820   40.2800   79.0940 N.am   68  MET68      -0.1977
     86  CA        10.3860   40.4840   80.0400 C.3    68  MET68       0.1605
     87  C         10.9030   41.0660   81.3470 C.2    68  MET68       0.2287
     88  O         10.3200   41.9990   81.9000 O.2    68  MET68      -0.2864
     89  CB         9.6420   39.1670   80.3080 C.3    68  MET68       0.0413
     90  CG         8.9280   38.5530   79.0900 C.3    68  MET68       0.0598
     91  SD         9.9980   37.8140   77.8420 S.3    68  MET68      -0.1393
     92  CE        10.1890   36.1880   78.4770 C.3    68  MET68       0.0692
     93  N         10.0920   32.2210   77.0310 N.3   134  ALA134     -0.1245
     94  CA        10.5400   32.5610   75.6830 C.3   134  ALA134      0.1562
     95  C         10.9190   31.2580   75.0010 C.2   134  ALA134      0.2260
     96  O         11.5720   30.4080   75.5960 O.2   134  ALA134     -0.2867
     97  CB        11.7290   33.4990   75.7310 C.3   134  ALA134      0.0290
     98  N         10.2570   29.9980   68.0640 N.3   137  ALA137     -0.1231
     99  CA         9.0400   29.9710   67.2730 C.3   137  ALA137      0.1694
    100  C          9.3570   29.9850   65.7720 C.2   137  ALA137      0.2592
    101  O          8.4490   29.9470   64.9370 O.2   137  ALA137     -0.2718
    102  CB         8.1430   31.1350   67.6460 C.3   137  ALA137      0.0304
    103  N         10.6440   30.0810   65.4350 N.am  138  SER138     -0.1952
    104  CA        11.0890   30.0690   64.0450 C.3   138  SER138      0.1924
    105  C         11.0990   28.6180   63.6220 C.2   138  SER138      0.2314
    106  O         12.1090   27.9350   63.8020 O.2   138  SER138     -0.2863
    107  CB        12.4970   30.6580   63.9130 C.3   138  SER138      0.2116
    108  OG        12.4660   32.0810   63.9680 O.3   138  SER138     -0.2180
    109  N          4.2250   27.3760   63.4390 N.3   143  GLN143     -0.1245
    110  CA         3.3510   28.4040   62.9070 C.3   143  GLN143      0.1566
    111  C          2.0060   27.9280   62.4080 C.2   143  GLN143      0.2260
    112  O          0.9890   28.5390   62.7170 O.2   143  GLN143     -0.2867
    113  CB         4.0880   29.1830   61.8430 C.3   143  GLN143      0.0367
    114  CG         5.4210   29.6370   62.3440 C.3   143  GLN143      0.0905
    115  CD         6.0700   30.6060   61.4240 C.2   143  GLN143      0.2608
    116  OE1        5.4580   31.5880   60.9960 O.2   143  GLN143     -0.2717
    117  NE2        7.3260   30.3440   61.0960 N.am  143  GLN143     -0.0878
    118  N         18.3320   26.7560   71.8410 N.3   158  ASP158     -0.1239
    119  CA        19.3310   27.8170   71.8040 C.3   158  ASP158      0.1674
    120  C         18.8460   29.0680   71.0830 C.2   158  ASP158      0.2266
    121  O         19.4070   30.1550   71.2500 O.2   158  ASP158     -0.2867
    122  CB        20.6080   27.2970   71.1360 C.3   158  ASP158      0.1410
    123  CG        21.1780   26.0540   71.8310 C.2   158  ASP158      0.3668
    124  OD1       20.4810   25.0060   71.8650 O.co2 158  ASP158     -0.2456
    125  OD2       22.3330   26.1260   72.3260 O.co2 158  ASP158     -0.2456
    126  N         16.0290   31.3030   71.2480 N.3   160  LEU160     -0.1231
    127  CA        14.7920   31.8120   71.8400 C.3   160  LEU160      0.1693
    128  C         14.5130   33.1230   71.1400 C.2   160  LEU160      0.2592
    129  O         15.2580   34.0820   71.2920 O.2   160  LEU160     -0.2718
    130  CB        14.9380   32.0020   73.3520 C.3   160  LEU160      0.0284
    131  CG        15.3090   30.7480   74.1670 C.3   160  LEU160      0.0019
    132  CD1       15.1570   31.0600   75.6420 C.3   160  LEU160      0.0001
    133  CD2       14.4370   29.5470   73.7990 C.3   160  LEU160      0.0001
    134  N         13.4680   33.1360   70.3240 N.am  161  ASN161     -0.1960
    135  CA        13.1100   34.3200   69.5390 C.3   161  ASN161      0.1819
    136  C         11.7140   34.8610   69.7680 C.2   161  ASN161      0.2621
    137  O         11.4180   36.0010   69.4190 O.2   161  ASN161     -0.2715
    138  CB        13.2700   34.0110   68.0500 C.3   161  ASN161      0.1195
    139  CG        12.6410   32.6700   67.6580 C.2   161  ASN161      0.2630
    140  OD1       11.4150   32.5210   67.6080 O.2   161  ASN161     -0.2716
    141  ND2       13.4860   31.6800   67.4190 N.am  161  ASN161     -0.0877
    142  N         10.8470   34.0610   70.3720 N.am  162  HIS162     -0.1959
    143  CA         9.4700   34.4780   70.6080 C.3   162  HIS162      0.1787
    144  C          9.0510   34.3150   72.0720 C.2   162  HIS162      0.2620
    145  O          9.0790   33.2130   72.6140 O.2   162  HIS162     -0.2715
    146  CB         8.5310   33.6560   69.7160 C.3   162  HIS162      0.0785
    147  CG         7.1460   34.2050   69.6170 C.ar  162  HIS162      0.0821
    148  ND1        6.8910   35.5320   69.3390 N.ar  162  HIS162     -0.2267
    149  CD2        5.9390   33.6080   69.7310 C.ar  162  HIS162      0.1154
    150  CE1        5.5880   35.7270   69.2820 C.ar  162  HIS162      0.1986
    151  NE2        4.9870   34.5740   69.5150 N.ar  162  HIS162     -0.2212
    152  N          8.6840   35.4250   72.7080 N.am  163  ALA163     -0.1977
    153  CA         8.2320   35.4200   74.0950 C.3   163  ALA163      0.1597
    154  C          6.7720   34.9920   74.0870 C.2   163  ALA163      0.2287
    155  O          6.0220   35.3140   73.1630 O.2   163  ALA163     -0.2864
    156  CB         8.3670   36.8090   74.7050 C.3   163  ALA163      0.0319
    157  N         -0.8280   36.1460   68.4940 N.3   184  TRP184     -0.1241
    158  CA        -1.0460   36.3220   67.0710 C.3   184  TRP184      0.1605
    159  C         -2.5410   36.2670   66.7820 C.2   184  TRP184      0.2264
    160  O         -2.9920   35.4410   66.0000 O.2   184  TRP184     -0.2867
    161  CB        -0.3430   35.2140   66.2880 C.3   184  TRP184      0.0550
    162  CG         1.1440   35.2470   66.3350 C.ar  184  TRP184      0.0003
    163  CD1        1.9360   36.3030   66.6700 C.ar  184  TRP184      0.0946
    164  CD2        2.0230   34.1760   65.9950 C.ar  184  TRP184      0.0152
    165  NE1        3.2590   35.9600   66.5640 N.ar  184  TRP184     -0.2442
    166  CE2        3.3450   34.6600   66.1490 C.ar  184  TRP184      0.0810
    167  CE3        1.8300   32.8590   65.5740 C.ar  184  TRP184      0.0012
    168  CZ2        4.4660   33.8630   65.8920 C.ar  184  TRP184      0.0191
    169  CZ3        2.9440   32.0690   65.3220 C.ar  184  TRP184      0.0001
    170  CH2        4.2460   32.5770   65.4820 C.ar  184  TRP184      0.0015
    171  N         -5.0700   32.4610   65.0820 N.3   188  TRP188     -0.1241
    172  CA        -3.9210   31.5590   65.0520 C.3   188  TRP188      0.1605
    173  C         -4.1540   30.3290   65.9340 C.2   188  TRP188      0.2264
    174  O         -4.9820   30.3700   66.8520 O.2   188  TRP188     -0.2867
    175  CB        -2.6520   32.2870   65.5000 C.3   188  TRP188      0.0550
    176  CG        -1.4660   31.3940   65.5050 C.ar  188  TRP188      0.0003
    177  CD1       -0.7390   31.0100   64.4280 C.ar  188  TRP188      0.0946
    178  CD2       -0.9170   30.6980   66.6310 C.ar  188  TRP188      0.0152
    179  NE1        0.2230   30.1070   64.8000 N.ar  188  TRP188     -0.2442
    180  CE2        0.1410   29.8950   66.1480 C.ar  188  TRP188      0.0810
    181  CE3       -1.2170   30.6660   67.9980 C.ar  188  TRP188      0.0012
    182  CZ2        0.9020   29.0710   66.9830 C.ar  188  TRP188      0.0191
    183  CZ3       -0.4600   29.8470   68.8260 C.ar  188  TRP188      0.0001
    184  CH2        0.5870   29.0600   68.3140 C.ar  188  TRP188      0.0015
    185  N         14.1780   31.0650   79.6510 N.3   209  LEU209     -0.1245
    186  CA        14.0830   32.4970   79.8580 C.3   209  LEU209      0.1561
    187  C         12.7430   32.7700   80.5060 C.2   209  LEU209      0.2260
    188  O         12.0090   33.6580   80.0770 O.2   209  LEU209     -0.2867
    189  CB        14.1880   33.2460   78.5340 C.3   209  LEU209      0.0270
    190  CG        14.6820   34.6890   78.6550 C.3   209  LEU209      0.0019
    191  CD1       16.1170   34.6870   79.1700 C.3   209  LEU209      0.0001
    192  CD2       14.6160   35.3880   77.3240 C.3   209  LEU209      0.0001
@<TRIPOS>BOND
     1    29    28    2
     2    28    30   am
     3    28    27    1
     4    27    26    1
     5   116   115    2
     6   117   115   am
     7    26    23    1
     8   115   114    1
     9   113   114    1
    10   113   110    1
    11   111   112    2
    12   111   110    1
    13    23    22    1
    14    23    24    1
    15   110   109    1
    16    25    24    2
    17    22    20   am
    18    24    31   am
    19   105   106    2
    20   105   104    1
    21    20    21    2
    22    20    19    1
    23   107   108    1
    24   107   104    1
    25   104   103    1
    26   177   179   ar
    27   177   176   ar
    28    19    18    1
    29     8     6   am
    30   179   180   ar
    31    31    32    1
    32   101   100    2
    33   172   171    1
    34   172   175    1
    35   172   173    1
    36   169   170   ar
    37   169   167   ar
    38     7     6    2
    39   103   100   am
    40   170   168   ar
    41   175   176    1
    42   176   178   ar
    43     6     5    1
    44   167   164   ar
    45    18    11   am
    46   100    99    1
    47    32    33    1
    48    32    35    1
    49   168   166   ar
    50   173   174    2
    51   164   166   ar
    52   164   162   ar
    53   160   159    2
    54   180   178   ar
    55   180   182   ar
    56   166   165   ar
    57   161   162    1
    58   161   158    1
    59   162   163   ar
    60   165   163   ar
    61    33    37   am
    62    33    34    2
    63   178   181   ar
    64    35    36    1
    65   159   158    1
    66     5     2    1
    67    37    38    1
    68    11    12    2
    69    11    10    1
    70   182   184   ar
    71   158   157    1
    72    99   102    1
    73    99    98    1
    74   141   139   am
    75    38    39    1
    76    62    61    1
    77    62    63    1
    78   140   139    2
    79   139   138    1
    80    14    15    1
    81    14    13    1
    82    15    17   am
    83    15    16    2
    84   181   183   ar
    85     9    10    1
    86     9     3   am
    87   138   135    1
    88     2     3    1
    89     2     1    1
    90    10    13    1
    91     3     4    2
    92    64    63    2
    93   184   183   ar
    94    63    65   am
    95    39    40    2
    96   150   148   ar
    97   150   151   ar
    98   148   147   ar
    99   137   136    2
   100   151   149   ar
   101   135   136    1
   102   135   134    1
   103   147   146    1
   104   147   149   ar
   105   146   143    1
   106   136   142   am
   107    65    66    1
   108   134   128   am
   109   142   143    1
   110   143   144    1
   111    66    67    1
   112    46    45    1
   113    45    42    1
   114   120   121    2
   115   120   119    1
   116   122   119    1
   117   122   123    1
   118   128   129    2
   119   128   127    1
   120    41    42    1
   121   126   127    1
   122   119   118    1
   123    42    43    1
   124   123   124   ar
   125   123   125   ar
   126   127   130    1
   127   144   145    2
   128   144   152   am
   129    67    68    2
   130    67    69   am
   131   152   153    1
   132    55    53   ar
   133    55    56   ar
   134    53    52   ar
   135    69    70    1
   136   155   154    2
   137    43    47   am
   138    43    44    2
   139   130   131    1
   140    47    48    1
   141   133   131    1
   142   154   153    1
   143   153   156    1
   144   131   132    1
   145    56    58   ar
   146    56    54   ar
   147    52    51    1
   148    52    54   ar
   149    70    71    1
   150    58    60   ar
   151    51    48    1
   152    48    49    1
   153    95    96    2
   154    95    94    1
   155    72    71    2
   156    54    57   ar
   157    84    83    1
   158    71    73   am
   159    94    97    1
   160    94    93    1
   161    49    50    2
   162    60    59   ar
   163    83    81   ar
   164    83    82   ar
   165    81    79   ar
   166    82    80   ar
   167    57    59   ar
   168    73    74    1
   169    79    78   ar
   170    80    78   ar
   171   192   190    1
   172    78    77    1
   173    74    77    1
   174    74    75    1
   175    91    92    1
   176    91    90    1
   177   189   190    1
   178   189   186    1
   179    75    76    2
   180    75    85   am
   181   190   191    1
   182    90    89    1
   183    85    86    1
   184   185   186    1
   185   186   187    1
   186    86    89    1
   187    86    87    1
   188   188   187    2
   189    87    88    2
