@<TRIPOS>MOLECULE
tmp/1au2A00.pdb
 163 160 0 0 0
SMALL
GASTEIGER

@<TRIPOS>ATOM
      1  N         -3.2880   40.8310   69.5610 N.3    18  ASN18      -0.1225
      2  CA        -2.3920   40.7240   68.4230 C.3    18  ASN18       0.1785
      3  C         -1.3460   41.8290   68.4840 C.2    18  ASN18       0.2597
      4  O         -1.6790   43.0170   68.5840 O.2    18  ASN18      -0.2718
      5  CB        -3.1630   40.9000   67.1220 C.3    18  ASN18       0.1169
      6  CG        -2.3760   40.4370   65.8800 C.2    18  ASN18       0.2627
      7  OD1       -1.4290   41.0880   65.4330 O.2    18  ASN18      -0.2716
      8  ND2       -2.7290   39.2650   65.3750 N.am   18  ASN18      -0.0877
      9  N         -0.0820   41.4400   68.3470 N.am   19  GLN19      -0.1965
     10  CA         0.9850   42.4500   68.3820 C.3    19  GLN19       0.1733
     11  C          1.0180   43.2250   67.0770 C.2    19  GLN19       0.2617
     12  O          1.2320   44.4370   67.0840 O.2    19  GLN19      -0.2715
     13  CB         2.3770   41.8890   68.7020 C.3    19  GLN19       0.0408
     14  CG         2.5240   40.4340   68.4180 C.3    19  GLN19       0.0908
     15  CD         3.9680   39.9770   68.4860 C.2    19  GLN19       0.2608
     16  OE1        4.2660   38.8700   68.9340 O.2    19  GLN19      -0.2717
     17  NE2        4.8780   40.8450   68.0710 N.am   19  GLN19      -0.0878
     18  N          0.7490   42.5430   65.9630 N.am   20  GLY20      -0.1940
     19  CA         0.7120   43.2060   64.6760 C.3    20  GLY20       0.2014
     20  C          2.0920   43.2140   64.0560 C.2    20  GLY20       0.2639
     21  O          2.7160   42.1700   63.9590 O.2    20  GLY20      -0.2714
     22  N          2.5270   44.3600   63.5460 N.am   21  GLN21      -0.1963
     23  CA         3.8580   44.4840   62.9110 C.3    21  GLN21       0.1733
     24  C          4.8370   45.2010   63.8390 C.2    21  GLN21       0.2616
     25  O          5.4790   46.2120   63.4770 O.2    21  GLN21      -0.2715
     26  CB         3.7170   45.2930   61.6030 C.3    21  GLN21       0.0408
     27  CG         2.5200   44.9310   60.7450 C.3    21  GLN21       0.0908
     28  CD         2.6320   43.6120   60.0600 C.2    21  GLN21       0.2608
     29  OE1        3.5410   43.3870   59.2930 O.2    21  GLN21      -0.2717
     30  NE2        1.7280   42.6950   60.3750 N.am   21  GLN21      -0.0878
     31  N          4.9700   44.6700   65.0310 N.am   22  CYS22      -0.1954
     32  CA         5.8010   45.2780   66.0180 C.3    22  CYS22       0.1843
     33  C          6.3180   44.1370   66.8490 C.2    22  CYS22       0.2626
     34  O          5.5860   43.2020   67.1340 O.2    22  CYS22      -0.2714
     35  CB         4.9350   46.2480   66.8400 C.3    22  CYS22       0.0997
     36  SG         5.6880   46.9930   68.3520 S.3    22  CYS22      -0.0797
     37  N          7.6160   44.1190   67.1130 N.am   23  GLY23      -0.1954
     38  CA         8.1710   43.0180   67.8730 C.3    23  GLY23       0.1869
     39  C          7.9610   43.3450   69.3360 C.2    23  GLY23       0.2309
     40  O          8.9070   43.3730   70.0670 O.2    23  GLY23      -0.2863
     41  N          6.3070   41.4770   71.3790 N.3    25  CYS25      -0.1221
     42  CA         5.8180   40.2530   71.9400 C.3    25  CYS25       0.1808
     43  C          6.2500   40.1740   73.4040 C.2    25  CYS25       0.2601
     44  O          5.5800   39.5580   74.2300 O.2    25  CYS25      -0.2717
     45  CB         6.3330   39.0480   71.1240 C.3    25  CYS25       0.0970
     46  SG         8.0870   38.9340   71.0870 S.3    25  CYS25      -0.0800
     47  N          7.3080   40.9120   73.7400 N.am   26  TRP26      -0.1976
     48  CA         7.8430   40.9170   75.1270 C.3    26  TRP26       0.1640
     49  C          6.9810   41.7440   76.0640 C.2    26  TRP26       0.2290
     50  O          6.9080   41.4530   77.2380 O.2    26  TRP26      -0.2864
     51  CB         9.2680   41.4860   75.1570 C.3    26  TRP26       0.0576
     52  CG         9.4170   42.8590   74.6620 C.ar   26  TRP26       0.0006
     53  CD1        9.5770   43.2600   73.3770 C.ar   26  TRP26       0.0946
     54  CD2        9.4010   44.0500   75.4540 C.ar   26  TRP26       0.0152
     55  NE1        9.6320   44.6250   73.3050 N.ar   26  TRP26      -0.2442
     56  CE2        9.5420   45.1390   74.5690 C.ar   26  TRP26       0.0810
     57  CE3        9.2790   44.3020   76.8350 C.ar   26  TRP26       0.0012
     58  CZ2        9.5680   46.4630   75.0090 C.ar   26  TRP26       0.0191
     59  CZ3        9.2920   45.5930   77.2700 C.ar   26  TRP26       0.0001
     60  CH2        9.4390   46.6820   76.3560 C.ar   26  TRP26       0.0015
     61  N         11.5130   46.9530   68.4980 N.3    64  GLY64      -0.1210
     62  CA        12.6720   46.1600   68.1180 C.3    64  GLY64       0.1956
     63  C         13.0350   44.9480   68.9810 C.2    64  GLY64       0.2612
     64  O         13.8800   44.1460   68.6170 O.2    64  GLY64      -0.2717
     65  N         12.3980   44.8340   70.1420 N.am   65  GLY65      -0.1942
     66  CA        12.6320   43.7240   71.0550 C.3    65  GLY65       0.2014
     67  C         12.8550   44.2240   72.4940 C.2    65  GLY65       0.2639
     68  O         12.9710   45.4540   72.7640 O.2    65  GLY65      -0.2714
     69  N         12.9690   43.2800   73.4240 N.am   66  GLY66      -0.1939
     70  CA        13.2190   43.6480   74.7970 C.3    66  GLY66       0.2014
     71  C         13.0680   42.4180   75.6320 C.2    66  GLY66       0.2639
     72  O         12.4920   41.4780   75.1670 O.2    66  GLY66      -0.2714
     73  N         13.6710   42.4030   76.8180 N.am   67  TYR67      -0.1959
     74  CA        13.5670   41.2780   77.7620 C.3    67  TYR67       0.1771
     75  C         12.3690   41.5570   78.6400 C.2    67  TYR67       0.2619
     76  O         11.9090   42.6740   78.7510 O.2    67  TYR67      -0.2715
     77  CB        14.8060   41.1880   78.6210 C.3    67  TYR67       0.0574
     78  CG        16.0870   40.8580   77.8840 C.ar   67  TYR67      -0.0198
     79  CD1       16.4820   39.5080   77.6630 C.ar   67  TYR67      -0.0009
     80  CD2       16.9010   41.8900   77.4180 C.ar   67  TYR67      -0.0009
     81  CE1       17.6360   39.2060   76.9930 C.ar   67  TYR67       0.0417
     82  CE2       18.0660   41.6090   76.7500 C.ar   67  TYR67       0.0417
     83  CZ        18.4190   40.2590   76.5390 C.ar   67  TYR67       0.1957
     84  OH        19.5610   39.9820   75.8400 O.3    67  TYR67      -0.2866
     85  N         11.8950   40.5370   79.3410 N.am   68  MET68      -0.1977
     86  CA        10.7410   40.7420   80.2470 C.3    68  MET68       0.1605
     87  C         11.2010   41.2280   81.6210 C.2    68  MET68       0.2287
     88  O         10.5710   42.1100   82.2190 O.2    68  MET68      -0.2864
     89  CB         9.8700   39.5000   80.4130 C.3    68  MET68       0.0413
     90  CG         9.2730   38.9820   79.1080 C.3    68  MET68       0.0598
     91  SD        10.4050   37.9250   78.1690 S.3    68  MET68      -0.1393
     92  CE         9.9010   36.3200   78.8600 C.3    68  MET68       0.0692
     93  N         10.1890   32.4960   77.2190 N.3   134  ALA134     -0.1245
     94  CA        10.7240   32.8490   75.8900 C.3   134  ALA134      0.1562
     95  C         11.1680   31.5980   75.1390 C.2   134  ALA134      0.2260
     96  O         12.0440   30.9060   75.5980 O.2   134  ALA134     -0.2867
     97  CB        11.8880   33.7980   76.0360 C.3   134  ALA134      0.0290
     98  N         10.1590   30.0640   68.3430 N.3   137  ALA137     -0.1245
     99  CA         8.9550   30.0080   67.5330 C.3   137  ALA137      0.1562
    100  C          9.2540   30.2440   66.0390 C.2   137  ALA137      0.2260
    101  O          8.4240   30.7540   65.3130 O.2   137  ALA137     -0.2867
    102  CB         7.9430   31.0210   68.0460 C.3   137  ALA137      0.0290
    103  N         18.5660   27.1560   72.1020 N.3   158  ASP158     -0.1239
    104  CA        19.5340   28.2290   72.1090 C.3   158  ASP158      0.1674
    105  C         19.1010   29.3840   71.2400 C.2   158  ASP158      0.2266
    106  O         19.8310   30.3710   71.0880 O.2   158  ASP158     -0.2867
    107  CB        20.8790   27.7240   71.5920 C.3   158  ASP158      0.1410
    108  CG        21.7200   27.0430   72.6680 C.2   158  ASP158      0.3668
    109  OD1       21.3090   25.9960   73.2110 O.co2 158  ASP158     -0.2456
    110  OD2       22.8160   27.5850   72.9490 O.co2 158  ASP158     -0.2456
    111  N         16.3350   31.5400   71.5960 N.3   160  LEU160     -0.1231
    112  CA        15.2040   32.1510   72.2780 C.3   160  LEU160      0.1693
    113  C         14.8660   33.3870   71.4620 C.2   160  LEU160      0.2592
    114  O         15.6910   34.2550   71.3040 O.2   160  LEU160     -0.2718
    115  CB        15.5950   32.5090   73.7090 C.3   160  LEU160      0.0284
    116  CG        16.0970   31.3800   74.6290 C.3   160  LEU160      0.0019
    117  CD1       16.6420   31.9620   75.9230 C.3   160  LEU160      0.0001
    118  CD2       14.9930   30.3800   74.9520 C.3   160  LEU160      0.0001
    119  N         13.6850   33.4260   70.8580 N.am  161  ASN161     -0.1960
    120  CA        13.3000   34.5870   70.0400 C.3   161  ASN161      0.1819
    121  C         11.8650   35.0690   70.2350 C.2   161  ASN161      0.2621
    122  O         11.5580   36.2290   69.9550 O.2   161  ASN161     -0.2715
    123  CB        13.5060   34.3000   68.5650 C.3   161  ASN161      0.1195
    124  CG        12.7360   33.0990   68.1200 C.2   161  ASN161      0.2630
    125  OD1       11.5000   33.0390   68.2360 O.2   161  ASN161     -0.2716
    126  ND2       13.4690   32.0850   67.6840 N.am  161  ASN161     -0.0877
    127  N         10.9710   34.1880   70.6530 N.am  162  HIS162     -0.1959
    128  CA         9.6050   34.6490   70.8710 C.3   162  HIS162      0.1787
    129  C          9.1680   34.5350   72.3490 C.2   162  HIS162      0.2620
    130  O          9.2870   33.4840   72.9660 O.2   162  HIS162     -0.2715
    131  CB         8.6300   33.8810   69.9770 C.3   162  HIS162      0.0785
    132  CG         7.2930   34.5520   69.8060 C.ar  162  HIS162      0.0821
    133  ND1        7.1590   35.8260   69.2950 N.ar  162  HIS162     -0.2267
    134  CD2        6.0350   34.1360   70.0960 C.ar  162  HIS162      0.1154
    135  CE1        5.8840   36.1680   69.2880 C.ar  162  HIS162      0.1986
    136  NE2        5.1810   35.1610   69.7710 N.ar  162  HIS162     -0.2212
    137  N          8.6970   35.6400   72.9150 N.am  163  ALA163     -0.1977
    138  CA         8.2220   35.6500   74.2960 C.3   163  ALA163      0.1597
    139  C          6.7170   35.4540   74.3830 C.2   163  ALA163      0.2287
    140  O          5.9560   36.1380   73.6930 O.2   163  ALA163     -0.2864
    141  CB         8.5900   36.9190   74.9600 C.3   163  ALA163      0.0319
    142  N         -0.4130   36.5410   68.7540 N.3   184  TRP184     -0.1241
    143  CA        -0.6670   36.7460   67.3370 C.3   184  TRP184      0.1605
    144  C         -2.1580   36.7880   67.0250 C.2   184  TRP184      0.2264
    145  O         -2.6050   36.4100   65.9310 O.2   184  TRP184     -0.2867
    146  CB         0.0660   35.7040   66.4660 C.3   184  TRP184      0.0550
    147  CG         1.5350   35.8130   66.4280 C.ar  184  TRP184      0.0003
    148  CD1        2.3140   36.9200   66.7030 C.ar  184  TRP184      0.0946
    149  CD2        2.4290   34.7640   66.1120 C.ar  184  TRP184      0.0152
    150  NE1        3.6510   36.6060   66.5940 N.ar  184  TRP184     -0.2442
    151  CE2        3.7570   35.2870   66.2300 C.ar  184  TRP184      0.0810
    152  CE3        2.2520   33.4230   65.7590 C.ar  184  TRP184      0.0012
    153  CZ2        4.9060   34.4970   66.0070 C.ar  184  TRP184      0.0191
    154  CZ3        3.3940   32.6350   65.5430 C.ar  184  TRP184      0.0001
    155  CH2        4.7020   33.1840   65.6710 C.ar  184  TRP184      0.0015
    156  N         14.4420   31.0940   80.0230 N.3   209  LEU209     -0.1245
    157  CA        14.3250   32.5150   80.3020 C.3   209  LEU209      0.1561
    158  C         12.9950   32.8620   80.9710 C.2   209  LEU209      0.2260
    159  O         12.2830   33.7260   80.5230 O.2   209  LEU209     -0.2867
    160  CB        14.5040   33.3390   79.0160 C.3   209  LEU209      0.0270
    161  CG        14.7510   34.8520   79.1910 C.3   209  LEU209      0.0019
    162  CD1       16.0030   35.1410   80.0320 C.3   209  LEU209      0.0001
    163  CD2       14.9080   35.4630   77.8310 C.3   209  LEU209      0.0001
@<TRIPOS>BOND
     1    29    28    2
     2    28    30   am
     3    28    27    1
     4    27    26    1
     5    26    23    1
     6    23    22    1
     7    23    24    1
     8    25    24    2
     9    22    20   am
    10    24    31   am
    11    21    20    2
    12    20    19    1
    13    19    18    1
    14    31    32    1
    15   101   100    2
    16     8     6   am
    17     7     6    2
    18   154   155   ar
    19   154   152   ar
    20   155   153   ar
    21   152   149   ar
    22     6     5    1
    23   145   144    2
    24    18    11   am
    25   153   151   ar
    26    32    35    1
    27    32    33    1
    28   100    99    1
    29   149   151   ar
    30   149   147   ar
    31   151   150   ar
    32   147   146    1
    33   147   148   ar
    34   146   143    1
    35   150   148   ar
    36    35    36    1
    37    33    37   am
    38    33    34    2
    39   144   143    1
    40    11    12    2
    41    11    10    1
    42    37    38    1
    43     5     2    1
    44   143   142    1
    45    99   102    1
    46    99    98    1
    47   126   124   am
    48    38    39    1
    49    17    15   am
    50    62    61    1
    51    62    63    1
    52   124   125    2
    53   124   123    1
    54     9    10    1
    55     9     3   am
    56    10    13    1
    57    14    15    1
    58    14    13    1
    59     2     3    1
    60     2     1    1
    61     3     4    2
    62    15    16    2
    63   123   120    1
    64    64    63    2
    65    63    65   am
    66   135   133   ar
    67   135   136   ar
    68   133   132   ar
    69    39    40    2
    70   136   134   ar
    71   132   131    1
    72   132   134   ar
    73   122   121    2
    74   131   128    1
    75   120   121    1
    76   120   119    1
    77    65    66    1
    78   121   127   am
    79   127   128    1
    80   119   113   am
    81   128   129    1
    82    66    67    1
    83    46    45    1
    84   106   105    2
    85    45    42    1
    86   105   104    1
    87   114   113    2
    88    41    42    1
    89   113   112    1
    90   107   104    1
    91   107   108    1
    92   111   112    1
    93    42    43    1
    94   103   104    1
    95   112   115    1
    96   129   137   am
    97   129   130    2
    98    67    68    2
    99    67    69   am
   100   108   110   ar
   101   108   109   ar
   102   137   138    1
   103    55    53   ar
   104    55    56   ar
   105    53    52   ar
   106    43    47   am
   107    43    44    2
   108    69    70    1
   109   140   139    2
   110   115   116    1
   111    47    48    1
   112   138   139    1
   113   138   141    1
   114    56    58   ar
   115    56    54   ar
   116   116   118    1
   117   116   117    1
   118    52    51    1
   119    52    54   ar
   120    70    71    1
   121    58    60   ar
   122    48    51    1
   123    48    49    1
   124    95    96    2
   125    95    94    1
   126    72    71    2
   127    54    57   ar
   128    71    73   am
   129    84    83    1
   130    94    97    1
   131    94    93    1
   132    49    50    2
   133    60    59   ar
   134    83    82   ar
   135    83    81   ar
   136    82    80   ar
   137    73    74    1
   138    57    59   ar
   139    81    79   ar
   140    80    78   ar
   141    79    78   ar
   142    74    77    1
   143    74    75    1
   144   163   161    1
   145    78    77    1
   146    91    92    1
   147    91    90    1
   148    75    76    2
   149    75    85   am
   150   160   161    1
   151   160   157    1
   152    90    89    1
   153   161   162    1
   154    85    86    1
   155   156   157    1
   156    86    89    1
   157    86    87    1
   158   157   158    1
   159   159   158    2
   160    87    88    2
