@<TRIPOS>MOLECULE
tmp/1au4A00.pdb
 209 205 0 0 0
SMALL
GASTEIGER

@<TRIPOS>ATOM
      1  N        -26.5940  -12.6900   63.0580 N.3    19  GLN19      -0.1231
      2  CA       -25.2210  -13.1310   63.2200 C.3    19  GLN19       0.1698
      3  C        -24.2420  -12.0230   62.8290 C.2    19  GLN19       0.2593
      4  O        -23.0540  -12.1520   63.0820 O.2    19  GLN19      -0.2718
      5  CB       -24.9580  -14.4090   62.4300 C.3    19  GLN19       0.0381
      6  CG       -25.3430  -14.2510   60.9820 C.3    19  GLN19       0.0905
      7  CD       -25.0990  -15.4880   60.1560 C.2    19  GLN19       0.2608
      8  OE1      -26.0390  -16.2030   59.8210 O.2    19  GLN19      -0.2717
      9  NE2      -23.8550  -15.7170   59.7680 N.am   19  GLN19      -0.0878
     10  N        -24.7240  -11.0110   62.1060 N.am   20  GLY20      -0.1942
     11  CA       -23.8620   -9.9070   61.6860 C.3    20  GLY20       0.2014
     12  C        -22.8260  -10.3070   60.6470 C.2    20  GLY20       0.2639
     13  O        -23.0770  -11.2640   59.9400 O.2    20  GLY20      -0.2714
     14  N        -21.6930   -9.6120   60.4880 N.am   21  GLN21      -0.1963
     15  CA       -20.7170  -10.0220   59.4270 C.3    21  GLN21       0.1733
     16  C        -19.7220  -11.0980   59.8740 C.2    21  GLN21       0.2616
     17  O        -18.5010  -11.0050   59.6590 O.2    21  GLN21      -0.2715
     18  CB       -20.0060   -8.8260   58.7470 C.3    21  GLN21       0.0408
     19  CG       -20.8690   -8.1280   57.6590 C.3    21  GLN21       0.0908
     20  CD       -21.5760   -9.0600   56.6350 C.2    21  GLN21       0.2608
     21  OE1      -20.9900  -10.0170   56.1610 O.2    21  GLN21      -0.2717
     22  NE2      -22.8370   -8.7430   56.2860 N.am   21  GLN21      -0.0878
     23  N        -20.3210  -12.2220   60.2560 N.am   22  CYS22      -0.1954
     24  CA       -19.5920  -13.3680   60.7240 C.3    22  CYS22       0.1843
     25  C        -20.2590  -14.6810   60.2960 C.2    22  CYS22       0.2626
     26  O        -21.4810  -14.7980   60.2790 O.2    22  CYS22      -0.2714
     27  CB       -19.4850  -13.2250   62.2470 C.3    22  CYS22       0.0997
     28  SG       -19.0220  -14.6680   63.2400 S.3    22  CYS22      -0.0797
     29  N        -19.4480  -15.6530   59.8980 N.am   23  GLY23      -0.1954
     30  CA       -20.0100  -16.9350   59.5240 C.3    23  GLY23       0.1869
     31  C        -20.2720  -17.8130   60.7510 C.2    23  GLY23       0.2309
     32  O        -19.7270  -18.9100   60.8300 O.2    23  GLY23      -0.2863
     33  N        -23.4600  -18.9600   61.6870 N.3    25  CYS25      -0.1221
     34  CA       -24.7760  -19.5480   61.5630 C.3    25  CYS25       0.1808
     35  C        -24.8010  -20.9170   62.2360 C.2    25  CYS25       0.2601
     36  O        -25.7680  -21.2480   62.8840 O.2    25  CYS25      -0.2717
     37  CB       -25.1830  -19.5860   60.0720 C.3    25  CYS25       0.0970
     38  SG       -24.1910  -20.7250   59.0200 S.3    25  CYS25      -0.0800
     39  N        -23.7220  -21.6940   62.1540 N.am   26  TRP26      -0.1976
     40  CA       -23.6370  -23.0100   62.8510 C.3    26  TRP26       0.1640
     41  C        -23.7240  -22.8280   64.4030 C.2    26  TRP26       0.2290
     42  O        -23.9660  -23.7850   65.1550 O.2    26  TRP26      -0.2864
     43  CB       -22.2990  -23.6530   62.5920 C.3    26  TRP26       0.0576
     44  CG       -21.1840  -22.7520   63.0630 C.ar   26  TRP26       0.0006
     45  CD1      -20.7100  -21.7030   62.3880 C.ar   26  TRP26       0.0946
     46  CD2      -20.4000  -22.8480   64.2760 C.ar   26  TRP26       0.0152
     47  NE1      -19.6570  -21.1230   63.0470 N.ar   26  TRP26      -0.2442
     48  CE2      -19.4390  -21.7930   64.2220 C.ar   26  TRP26       0.0810
     49  CE3      -20.4150  -23.7060   65.3830 C.ar   26  TRP26       0.0012
     50  CZ2      -18.4880  -21.5600   65.2430 C.ar   26  TRP26       0.0191
     51  CZ3      -19.4750  -23.4880   66.4070 C.ar   26  TRP26       0.0001
     52  CH2      -18.5150  -22.4070   66.3260 C.ar   26  TRP26       0.0015
     53  N        -12.5380  -26.9850   67.3620 N.3    59  GLU59      -0.1231
     54  CA       -12.6680  -27.8640   66.2090 C.3    59  GLU59       0.1699
     55  C        -13.3050  -27.0710   65.0520 C.2    59  GLU59       0.2592
     56  O        -13.2150  -27.4570   63.9070 O.2    59  GLU59      -0.2718
     57  CB       -13.4700  -29.1230   66.5970 C.3    59  GLU59       0.0402
     58  CG       -13.1180  -29.6950   67.9950 C.3    59  GLU59       0.1161
     59  CD       -14.0180  -29.1480   69.1270 C.2    59  GLU59       0.3649
     60  OE1      -15.1650  -29.6840   69.2910 O.co2  59  GLU59      -0.2457
     61  OE2      -13.5620  -28.1960   69.8450 O.co2  59  GLU59      -0.2457
     62  N        -13.9090  -25.9280   65.3480 N.am   60  ASN60      -0.1960
     63  CA       -14.4970  -25.1380   64.2780 C.3    60  ASN60       0.1819
     64  C        -13.6040  -23.9420   63.8870 C.2    60  ASN60       0.2621
     65  O        -12.4290  -23.9060   64.2510 O.2    60  ASN60      -0.2715
     66  CB       -15.9230  -24.7060   64.6330 C.3    60  ASN60       0.1195
     67  CG       -16.9600  -25.8660   64.4820 C.2    60  ASN60       0.2630
     68  OD1      -17.9420  -25.9500   65.2300 O.2    60  ASN60      -0.2716
     69  ND2      -16.7480  -26.7400   63.4970 N.am   60  ASN60      -0.0877
     70  N        -14.1080  -23.0620   63.0180 N.am   61  ASP61      -0.1971
     71  CA       -13.3600  -21.8970   62.5310 C.3    61  ASP61       0.1709
     72  C        -13.8900  -20.5480   62.9820 C.2    61  ASP61       0.2293
     73  O        -13.3810  -19.4880   62.6210 O.2    61  ASP61      -0.2864
     74  CB       -13.2900  -21.9580   61.0180 C.3    61  ASP61       0.1436
     75  CG       -11.9640  -22.4640   60.5160 C.2    61  ASP61       0.3671
     76  OD1      -11.4100  -23.4190   61.1260 O.co2  61  ASP61      -0.2456
     77  OD2      -11.4790  -21.9070   59.5040 O.co2  61  ASP61      -0.2456
     78  N        -15.4650  -18.1860   60.4070 N.3    64  GLY64      -0.1210
     79  CA       -15.1920  -18.7930   59.1060 C.3    64  GLY64       0.1956
     80  C        -16.1170  -19.9710   58.8330 C.2    64  GLY64       0.2612
     81  O        -16.1890  -20.4900   57.7160 O.2    64  GLY64      -0.2717
     82  N        -16.7940  -20.4560   59.8580 N.am   65  GLY65      -0.1942
     83  CA       -17.7040  -21.5630   59.6200 C.3    65  GLY65       0.2017
     84  C        -17.3920  -22.8130   60.4230 C.2    65  GLY65       0.2678
     85  O        -16.2390  -23.1280   60.7360 O.2    65  GLY65      -0.2710
     86  N        -18.4320  -23.6160   60.6140 N.am   66  GLY66      -0.1716
     87  CA       -18.2860  -24.8510   61.3660 C.2    66  GLY66       0.1480
     88  C        -19.4810  -25.7770   61.4270 C.2    66  GLY66       0.2820
     89  O        -20.5700  -25.3740   61.0030 O.2    66  GLY66      -0.2669
     90  N        -19.3070  -26.9400   62.0610 N.am   67  TYR67      -0.1925
     91  CA       -20.3730  -27.9060   62.1550 C.3    67  TYR67       0.1774
     92  C        -21.1090  -27.8610   63.4920 C.2    67  TYR67       0.2619
     93  O        -20.5470  -27.5230   64.5190 O.2    67  TYR67      -0.2715
     94  CB       -19.8340  -29.3140   61.8210 C.3    67  TYR67       0.0574
     95  CG       -19.2780  -29.3750   60.4310 C.ar   67  TYR67      -0.0198
     96  CD1      -20.0770  -29.1450   59.3260 C.ar   67  TYR67      -0.0009
     97  CD2      -17.9350  -29.5670   60.2110 C.ar   67  TYR67      -0.0009
     98  CE1      -19.5380  -29.0910   58.0300 C.ar   67  TYR67       0.0417
     99  CE2      -17.3920  -29.5160   58.9110 C.ar   67  TYR67       0.0417
    100  CZ       -18.2010  -29.2740   57.8420 C.ar   67  TYR67       0.1957
    101  OH       -17.7010  -29.2070   56.5850 O.3    67  TYR67      -0.2866
    102  N        -22.4020  -28.1300   63.4840 N.am   68  MET68      -0.1977
    103  CA       -23.1160  -28.1410   64.7560 C.3    68  MET68       0.1605
    104  C        -22.6560  -29.3080   65.6270 C.2    68  MET68       0.2287
    105  O        -22.6300  -29.2100   66.8340 O.2    68  MET68      -0.2864
    106  CB       -24.6210  -28.2270   64.5580 C.3    68  MET68       0.0413
    107  CG       -25.1060  -27.0190   63.8190 C.3    68  MET68       0.0598
    108  SD       -24.7620  -27.3140   62.0410 S.3    68  MET68      -0.1393
    109  CE       -26.3910  -28.1350   61.5640 C.3    68  MET68       0.0692
    110  N        -19.7380  -30.3840   66.1110 N.3    70  ASN70      -0.1240
    111  CA       -18.5610  -30.0480   66.9070 C.3    70  ASN70       0.1653
    112  C        -18.9930  -29.2220   68.1060 C.2    70  ASN70       0.2266
    113  O        -18.5850  -29.4860   69.2140 O.2    70  ASN70      -0.2867
    114  CB       -17.5290  -29.2810   66.0690 C.3    70  ASN70       0.1155
    115  CG       -16.8290  -30.1690   65.0200 C.2    70  ASN70       0.2627
    116  OD1      -17.0720  -31.3900   64.9440 O.2    70  ASN70      -0.2716
    117  ND2      -16.0190  -29.5500   64.1690 N.am   70  ASN70      -0.0877
    118  N        -29.1380  -27.8490   58.1520 N.3   134  ALA134     -0.1245
    119  CA       -28.3240  -27.0820   57.2220 C.3   134  ALA134      0.1562
    120  C        -29.1380  -27.0560   55.9470 C.2   134  ALA134      0.2260
    121  O        -29.9930  -27.9160   55.7100 O.2   134  ALA134     -0.2867
    122  CB       -26.9900  -27.7460   56.9740 C.3   134  ALA134      0.0290
    123  N        -28.5890  -21.9380   50.8380 N.3   137  ALA137     -0.1231
    124  CA       -29.2340  -20.6440   50.9650 C.3   137  ALA137      0.1694
    125  C        -28.6530  -19.5550   50.0670 C.2   137  ALA137      0.2592
    126  O        -28.8920  -18.3790   50.2950 O.2   137  ALA137     -0.2718
    127  CB       -29.2160  -20.2160   52.4260 C.3   137  ALA137      0.0304
    128  N        -27.9690  -19.9710   49.0020 N.am  138  SER138     -0.1952
    129  CA       -27.3450  -19.0560   48.0310 C.3   138  SER138      0.1924
    130  C        -28.3250  -18.4100   47.0680 C.2   138  SER138      0.2314
    131  O        -28.0850  -17.2860   46.5660 O.2   138  SER138     -0.2863
    132  CB       -26.2820  -19.7990   47.2340 C.3   138  SER138      0.2116
    133  OG       -26.7120  -21.1350   47.0250 O.3   138  SER138     -0.2180
    134  N        -33.0240  -15.0100   49.8350 N.3   143  GLN143     -0.1245
    135  CA       -32.7390  -13.7360   50.4860 C.3   143  GLN143      0.1566
    136  C        -33.9000  -12.7580   50.3490 C.2   143  GLN143      0.2260
    137  O        -34.2030  -12.0190   51.2890 O.2   143  GLN143     -0.2867
    138  CB       -31.4510  -13.1390   49.9450 C.3   143  GLN143      0.0367
    139  CG       -30.3350  -14.1500   49.7490 C.3   143  GLN143      0.0905
    140  CD       -29.0680  -13.4880   49.2360 C.2   143  GLN143      0.2608
    141  OE1      -29.0250  -12.2610   49.0790 O.2   143  GLN143     -0.2717
    142  NE2      -28.0190  -14.2850   48.9970 N.am  143  GLN143     -0.0878
    143  N        -24.6750  -27.5950   50.9900 N.3   160  LEU160     -0.1231
    144  CA       -25.1620  -27.0650   52.2450 C.3   160  LEU160      0.1693
    145  C        -24.2160  -25.9510   52.6270 C.2   160  LEU160      0.2592
    146  O        -23.0610  -26.2140   52.9180 O.2   160  LEU160     -0.2718
    147  CB       -25.0640  -28.1530   53.2890 C.3   160  LEU160      0.0284
    148  CG       -25.7200  -29.4480   52.8310 C.3   160  LEU160      0.0019
    149  CD1      -25.2360  -30.6440   53.6190 C.3   160  LEU160      0.0001
    150  CD2      -27.2190  -29.2570   52.9130 C.3   160  LEU160      0.0001
    151  N        -24.7300  -24.7390   52.7450 N.am  161  ASN161     -0.1960
    152  CA       -23.9150  -23.5790   53.0970 C.3   161  ASN161      0.1819
    153  C        -24.4170  -22.6740   54.2310 C.2   161  ASN161      0.2621
    154  O        -23.7510  -21.7030   54.5870 O.2   161  ASN161     -0.2715
    155  CB       -23.6050  -22.7770   51.8270 C.3   161  ASN161      0.1195
    156  CG       -24.8450  -22.5540   50.9290 C.2   161  ASN161      0.2630
    157  OD1      -25.7090  -21.7430   51.2160 O.2   161  ASN161     -0.2716
    158  ND2      -24.9230  -23.3070   49.8430 N.am  161  ASN161     -0.0877
    159  N        -25.5980  -22.9630   54.7570 N.am  162  HIS162     -0.1959
    160  CA       -26.1330  -22.1940   55.8590 C.3   162  HIS162      0.1787
    161  C        -26.8030  -23.1100   56.8630 C.2   162  HIS162      0.2620
    162  O        -27.4130  -24.0990   56.4930 O.2   162  HIS162     -0.2715
    163  CB       -27.1180  -21.1460   55.3500 C.3   162  HIS162      0.0785
    164  CG       -27.6300  -20.2150   56.4100 C.ar  162  HIS162      0.0821
    165  ND1      -26.8150  -19.3870   57.1570 N.ar  162  HIS162     -0.2267
    166  CD2      -28.8920  -19.9860   56.8380 C.ar  162  HIS162      0.1154
    167  CE1      -27.5600  -18.6810   57.9930 C.ar  162  HIS162      0.1986
    168  NE2      -28.8210  -19.0310   57.8200 N.ar  162  HIS162     -0.2212
    169  N        -26.6130  -22.8400   58.1430 N.am  163  ALA163     -0.1977
    170  CA       -27.2680  -23.6310   59.1710 C.3   163  ALA163      0.1597
    171  C        -28.4680  -22.8520   59.6540 C.2   163  ALA163      0.2287
    172  O        -28.4260  -21.6230   59.8340 O.2   163  ALA163     -0.2864
    173  CB       -26.3510  -23.9040   60.3180 C.3   163  ALA163      0.0319
    174  N        -30.8240  -13.9850   60.5460 N.3   184  TRP184     -0.1241
    175  CA       -30.5050  -12.8190   59.7090 C.3   184  TRP184      0.1605
    176  C        -31.3430  -11.5900   60.0210 C.2   184  TRP184      0.2264
    177  O        -31.4120  -10.6960   59.1810 O.2   184  TRP184     -0.2867
    178  CB       -30.7100  -13.1040   58.2160 C.3   184  TRP184      0.0550
    179  CG       -29.7870  -14.0630   57.5810 C.ar  184  TRP184      0.0003
    180  CD1      -28.6620  -14.6140   58.1130 C.ar  184  TRP184      0.0946
    181  CD2      -29.9010  -14.5790   56.2600 C.ar  184  TRP184      0.0152
    182  NE1      -28.0610  -15.4550   57.2050 N.ar  184  TRP184     -0.2442
    183  CE2      -28.8020  -15.4540   56.0540 C.ar  184  TRP184      0.0810
    184  CE3      -30.8230  -14.3790   55.2200 C.ar  184  TRP184      0.0012
    185  CZ2      -28.5950  -16.1360   54.8420 C.ar  184  TRP184      0.0191
    186  CZ3      -30.6300  -15.0370   54.0360 C.ar  184  TRP184      0.0001
    187  CH2      -29.5160  -15.9160   53.8450 C.ar  184  TRP184      0.0015
    188  N        -35.8900   -9.7940   57.8110 N.3   188  TRP188     -0.1241
    189  CA       -35.6650  -10.6810   56.6820 C.3   188  TRP188      0.1605
    190  C        -36.8000  -11.6340   56.7060 C.2   188  TRP188      0.2264
    191  O        -37.2890  -11.9610   57.7770 O.2   188  TRP188     -0.2867
    192  CB       -34.3880  -11.4890   56.8350 C.3   188  TRP188      0.0550
    193  CG       -34.1950  -12.5250   55.7770 C.ar  188  TRP188      0.0003
    194  CD1      -33.4800  -12.3730   54.6270 C.ar  188  TRP188      0.0946
    195  CD2      -34.6860  -13.8940   55.7740 C.ar  188  TRP188      0.0152
    196  NE1      -33.4850  -13.5430   53.9090 N.ar  188  TRP188     -0.2442
    197  CE2      -34.2110  -14.4940   54.5860 C.ar  188  TRP188      0.0810
    198  CE3      -35.4830  -14.6700   56.6660 C.ar  188  TRP188      0.0012
    199  CZ2      -34.5000  -15.8310   54.2610 C.ar  188  TRP188      0.0191
    200  CZ3      -35.7640  -15.9610   56.3530 C.ar  188  TRP188      0.0001
    201  CH2      -35.2780  -16.5450   55.1590 C.ar  188  TRP188      0.0015
    202  N        -28.0760  -32.8770   56.6380 N.3   209  LEU209     -0.1245
    203  CA       -27.1880  -32.6420   57.7840 C.3   209  LEU209      0.1561
    204  C        -27.9670  -32.1180   59.0250 C.2   209  LEU209      0.2260
    205  O        -27.7230  -30.9860   59.4970 O.2   209  LEU209     -0.2867
    206  CB       -26.0720  -31.6440   57.3970 C.3   209  LEU209      0.0270
    207  CG       -24.7290  -31.6940   58.1480 C.3   209  LEU209      0.0019
    208  CD1      -24.1050  -33.0720   58.0850 C.3   209  LEU209      0.0001
    209  CD2      -23.7640  -30.6620   57.5180 C.3   209  LEU209      0.0001
@<TRIPOS>BOND
     1   131   130    2
     2   133   132    1
     3   130   129    1
     4   132   129    1
     5   129   128    1
     6   142   140   am
     7   128   125   am
     8   141   140    2
     9   140   139    1
    10   139   138    1
    11   134   135    1
    12   158   156   am
    13   138   135    1
    14   125   126    2
    15   125   124    1
    16   136   135    1
    17   136   137    2
    18   123   124    1
    19   156   157    2
    20   156   155    1
    21   124   127    1
    22   143   144    1
    23   155   152    1
    24   144   145    1
    25   144   147    1
    26   145   151   am
    27   145   146    2
    28   151   152    1
    29   148   150    1
    30   148   147    1
    31   148   149    1
    32   152   153    1
    33   187   186   ar
    34   187   185   ar
    35   196   197   ar
    36   196   194   ar
    37   186   184   ar
    38   153   154    2
    39   153   159   am
    40   199   197   ar
    41   199   201   ar
    42   197   195   ar
    43   194   193   ar
    44   159   160    1
    45   185   183   ar
    46   201   200   ar
    47   184   181   ar
    48   163   160    1
    49   163   164    1
    50   121   120    2
    51   195   193   ar
    52   195   198   ar
    53   193   192    1
    54   160   161    1
    55   120   119    1
    56   183   181   ar
    57   183   182   ar
    58    21    20    2
    59   181   179   ar
    60    22    20   am
    61   200   198   ar
    62   164   166   ar
    63   164   165   ar
    64   162   161    2
    65   101   100    1
    66    20    19    1
    67   202   203    1
    68   189   190    1
    69   189   192    1
    70   189   188    1
    71   190   191    2
    72   166   168   ar
    73   161   169   am
    74   122   119    1
    75   165   167   ar
    76   182   180   ar
    77   119   118    1
    78   206   203    1
    79   206   207    1
    80   209   207    1
    81   179   180   ar
    82   179   178    1
    83    19    18    1
    84    81    80    2
    85   203   204    1
    86   168   167   ar
    87   100    98   ar
    88   100    99   ar
    89    98    96   ar
    90   208   207    1
    91   169   170    1
    92   178   175    1
    93    18    15    1
    94    80    79    1
    95    80    82   am
    96    99    97   ar
    97    38    37    1
    98   204   205    2
    99    79    78    1
   100   170   171    1
   101   170   173    1
   102   177   176    2
   103    96    95   ar
   104    15    16    1
   105    15    14    1
   106    77    75   ar
   107    30    29    1
   108    30    31    1
   109    83    82    1
   110    83    84    1
   111   171   172    2
   112    17    16    2
   113   175   176    1
   114   175   174    1
   115     9     7   am
   116     8     7    2
   117    16    23   am
   118    29    25   am
   119    13    12    2
   120    37    34    1
   121     7     6    1
   122    97    95   ar
   123    23    24    1
   124    26    25    2
   125    25    24    1
   126    84    86    1
   127    84    85    2
   128    95    94    1
   129    14    12   am
   130    75    74    1
   131    75    76   ar
   132    86    87    2
   133    12    11    1
   134    24    27    1
   135    31    32    2
   136     6     5    1
   137    89    88    2
   138    74    71    1
   139    87    88    1
   140    88    90   am
   141    34    33    1
   142    34    35    1
   143   109   108    1
   144    11    10    1
   145    94    91    1
   146   108   107    1
   147    90    91    1
   148    10     3   am
   149    39    35   am
   150    39    40    1
   151    91    92    1
   152    35    36    2
   153    27    28    1
   154    45    47   ar
   155    45    44   ar
   156     5     2    1
   157    71    72    1
   158    71    70    1
   159    43    40    1
   160    43    44    1
   161    73    72    2
   162     3     4    2
   163     3     2    1
   164    40    41    1
   165    70    64   am
   166    47    48   ar
   167     1     2    1
   168    44    46   ar
   169   102    92   am
   170   102   103    1
   171    92    93    2
   172    69    67   am
   173   107   106    1
   174    64    65    2
   175    64    63    1
   176    56    55    2
   177   117   115   am
   178    48    46   ar
   179    48    50   ar
   180    46    49   ar
   181    63    66    1
   182    63    62    1
   183    41    42    2
   184    67    66    1
   185    67    68    2
   186   106   103    1
   187   103   104    1
   188   116   115    2
   189   115   114    1
   190    55    62   am
   191    55    54    1
   192    50    52   ar
   193    49    51   ar
   194   104   105    2
   195   114   111    1
   196   110   111    1
   197    54    57    1
   198    54    53    1
   199    52    51   ar
   200    57    58    1
   201   111   112    1
   202    58    59    1
   203   112   113    2
   204    59    60   ar
   205    59    61   ar
