@<TRIPOS>MOLECULE
tmp/1au8A00.pdb
 151 146 0 0 0
SMALL
GASTEIGER

@<TRIPOS>ATOM
      1  N          7.4820   32.3790   11.3440 N.3    28  ARG28      -0.1231
      2  CA         8.2340   31.1740   10.9140 C.3    28  ARG28       0.1694
      3  C          9.4530   31.5450   10.0570 C.2    28  ARG28       0.2592
      4  O          9.4770   32.5750    9.3750 O.2    28  ARG28      -0.2718
      5  CB         7.3270   30.2420   10.0980 C.3    28  ARG28       0.0321
      6  CG         6.9300   30.8120    8.7360 C.3    28  ARG28       0.0489
      7  CD         5.8060   31.8460    8.8250 C.3    28  ARG28       0.2205
      8  NE         5.3170   32.2840    7.5080 N.pl3  28  ARG28      -0.0865
      9  CZ         5.8940   33.2470    6.7750 C.cat  28  ARG28       0.5346
     10  NH1        6.9860   33.8880    7.2140 N.pl3  28  ARG28       0.1354
     11  NH2        5.4460   33.6470    5.5770 N.pl3  28  ARG28       0.1354
     12  N         10.4900   30.6710   10.1910 N.am   29  CYS29      -0.1970
     13  CA        11.7470   30.8290    9.4730 C.3    29  CYS29       0.1712
     14  C         12.3490   29.4760    9.1720 C.2    29  CYS29       0.2296
     15  O         11.8210   28.4480    9.5540 O.2    29  CYS29      -0.2864
     16  CB        12.7520   31.6000   10.3200 C.3    29  CYS29       0.0983
     17  SG        12.5710   33.4020   10.3150 S.3    29  CYS29      -0.0798
     18  N         17.2600   38.0220   12.5700 N.3    44  HIS44      -0.1241
     19  CA        15.9720   38.7000   12.5120 C.3    44  HIS44       0.1621
     20  C         14.8280   37.7400   12.8090 C.2    44  HIS44       0.2264
     21  O         13.7170   38.1630   13.0690 O.2    44  HIS44      -0.2867
     22  CB        15.7960   39.5220   11.1980 C.3    44  HIS44       0.0745
     23  CG        15.2800   38.7430   10.0190 C.ar   44  HIS44       0.0817
     24  ND1       16.0910   38.3440    8.9800 N.ar   44  HIS44      -0.2268
     25  CD2       14.0250   38.3610    9.6770 C.ar   44  HIS44       0.1154
     26  CE1       15.3640   37.7580    8.0500 C.ar   44  HIS44       0.1986
     27  NE2       14.1070   37.7540    8.4480 N.ar   44  HIS44      -0.2212
     28  N         19.7110   45.7710    8.8480 N.3    85  ILE85      -0.1245
     29  CA        19.6530   44.3010    8.6700 C.3    85  ILE85       0.1561
     30  C         21.0450   43.7450    8.3530 C.2    85  ILE85       0.2260
     31  O         21.2050   42.8780    7.4790 O.2    85  ILE85      -0.2867
     32  CB        18.7070   43.9310    7.5240 C.3    85  ILE85       0.0252
     33  CG1       17.4070   44.7370    7.5360 C.3    85  ILE85       0.0019
     34  CG2       18.2820   42.4590    7.5560 C.3    85  ILE85       0.0019
     35  CD1       16.4920   44.4160    6.3520 C.3    85  ILE85       0.0001
     36  N         22.0370   49.0520   -5.3230 N.3   155  ILE155     -0.1231
     37  CA        20.6030   48.8390   -5.0990 C.3   155  ILE155      0.1692
     38  C         20.2180   48.9360   -3.6140 C.2   155  ILE155      0.2592
     39  O         19.1410   49.4250   -3.2640 O.2   155  ILE155     -0.2718
     40  CB        20.1740   47.4400   -5.6060 C.3   155  ILE155      0.0266
     41  CG1       20.7960   47.1610   -6.9790 C.3   155  ILE155      0.0019
     42  CG2       18.6560   47.3550   -5.6800 C.3   155  ILE155      0.0020
     43  CD1       20.8090   45.6930   -7.3650 C.3   155  ILE155      0.0001
     44  N         21.0850   48.4120   -2.7550 N.am  156  PHE156     -0.1976
     45  CA        20.8500   48.4050   -1.3160 C.3   156  PHE156      0.1639
     46  C         21.8870   49.2790   -0.6300 C.2   156  PHE156      0.2290
     47  O         23.0930   49.0490   -0.7580 O.2   156  PHE156     -0.2864
     48  CB        20.9120   46.9690   -0.7880 C.3   156  PHE156      0.0560
     49  CG        19.8990   46.0530   -1.4120 C.ar  156  PHE156     -0.0200
     50  CD1       18.5530   46.2110   -1.1450 C.ar  156  PHE156     -0.0042
     51  CD2       20.2970   45.0440   -2.2780 C.ar  156  PHE156     -0.0042
     52  CE1       17.6190   45.3860   -1.7300 C.ar  156  PHE156     -0.0003
     53  CE2       19.3710   44.2130   -2.8670 C.ar  156  PHE156     -0.0003
     54  CZ        18.0350   44.3800   -2.5970 C.ar  156  PHE156     -0.0000
     55  N         13.7110   33.2680   -6.5940 N.3   175  ALA175     -0.1231
     56  CA        14.1910   33.9440   -5.3840 C.3   175  ALA175      0.1694
     57  C         13.6280   33.2980   -4.1210 C.2   175  ALA175      0.2592
     58  O         12.7180   32.4700   -4.1750 O.2   175  ALA175     -0.2718
     59  CB        13.7640   35.4090   -5.4170 C.3   175  ALA175      0.0304
     60  N         14.2300   33.6550   -2.9790 N.am  176  ALA176     -0.1966
     61  CA        13.7220   33.1740   -1.7080 C.3   176  ALA176      0.1728
     62  C         12.5910   34.1560   -1.4440 C.2   176  ALA176      0.2616
     63  O         12.5290   35.2120   -2.0740 O.2   176  ALA176     -0.2715
     64  CB        14.7750   33.2760   -0.6470 C.3   176  ALA176      0.0334
     65  N         11.6870   33.8190   -0.5340 N.am  177  PHE177     -0.1960
     66  CA        10.5640   34.6880   -0.2310 C.3   177  PHE177      0.1771
     67  C         10.2170   34.6070    1.2490 C.2   177  PHE177      0.2619
     68  O         10.9800   34.0610    2.0420 O.2   177  PHE177     -0.2715
     69  CB         9.3710   34.3090   -1.1120 C.3   177  PHE177      0.0574
     70  CG         8.4220   35.4390   -1.3650 C.ar  177  PHE177     -0.0200
     71  CD1        8.9000   36.7330   -1.5920 C.ar  177  PHE177     -0.0042
     72  CD2        7.0470   35.2260   -1.3180 C.ar  177  PHE177     -0.0042
     73  CE1        8.0050   37.7980   -1.7580 C.ar  177  PHE177     -0.0003
     74  CE2        6.1480   36.2780   -1.4840 C.ar  177  PHE177     -0.0003
     75  CZ         6.6210   37.5660   -1.7010 C.ar  177  PHE177     -0.0000
     76  N          9.0760   35.0400    1.6350 N.am  178  LYS178     -0.1963
     77  CA         8.6370   35.2050    3.0270 C.3   178  LYS178      0.1728
     78  C          8.4570   33.8330    3.6840 C.2   178  LYS178      0.2616
     79  O          7.7890   32.9440    3.1390 O.2   178  LYS178     -0.2715
     80  CB         7.3100   35.9670    3.0600 C.3   178  LYS178      0.0311
     81  CG         7.4600   37.4020    2.5510 C.3   178  LYS178      0.0038
     82  CD         6.1520   38.1890    2.5300 C.3   178  LYS178      0.0206
     83  CE         6.3730   39.6880    2.3040 C.3   178  LYS178      0.1093
     84  NZ         7.3680   39.9700    1.2570 N.3   178  LYS178     -0.1314
     85  N          9.3400   33.6490    4.7150 N.am  179  GLY179     -0.1955
     86  CA         9.3570   32.3740    5.4020 C.3   179  GLY179      0.1869
     87  C         10.6030   31.5760    5.1170 C.2   179  GLY179      0.2309
     88  O         10.8820   30.6100    5.8110 O.2   179  GLY179     -0.2863
     89  N         13.6430   32.9220    5.1760 N.3   181  SER181     -0.1217
     90  CA        14.7250   33.5310    5.9390 C.3   181  SER181      0.1889
     91  C         15.4080   32.5560    6.8630 C.2   181  SER181      0.2288
     92  O         14.7310   31.7860    7.5250 O.2   181  SER181     -0.2866
     93  CB        14.1960   34.7050    6.7730 C.3   181  SER181      0.2089
     94  OG        14.0710   35.8790    5.9870 O.3   181  SER181     -0.2183
     95  N         19.6280   33.1660    4.0040 N.3   195  VAL195     -0.1231
     96  CA        18.5910   34.0580    3.4640 C.3   195  VAL195      0.1692
     97  C         18.3500   35.1770    4.4610 C.2   195  VAL195      0.2593
     98  O         18.1200   34.9340    5.6500 O.2   195  VAL195     -0.2718
     99  CB        17.3080   33.2680    3.2350 C.3   195  VAL195      0.0266
    100  CG1       16.1480   34.1570    2.7800 C.3   195  VAL195      0.0020
    101  CG2       17.4760   32.1870    2.1640 C.3   195  VAL195      0.0020
    102  N         18.4040   36.4040    3.9690 N.am  196  SER196     -0.1938
    103  CA        18.2300   37.5670    4.8430 C.3   196  SER196      0.2055
    104  C         17.1280   38.5240    4.3430 C.2   196  SER196      0.2643
    105  O         16.0510   38.6110    4.9410 O.2   196  SER196     -0.2714
    106  CB        19.5480   38.3280    4.9540 C.3   196  SER196      0.2130
    107  OG        19.4250   39.3810    5.8980 O.3   196  SER196     -0.2179
    108  N         17.3710   39.2600    3.2480 N.am  197  TYR197     -0.1959
    109  CA        16.3360   40.2080    2.7610 C.3   197  TYR197      0.1771
    110  C         16.5190   40.5760    1.2790 C.2   197  TYR197      0.2620
    111  O         17.5170   40.2290    0.6410 O.2   197  TYR197     -0.2715
    112  CB        16.3790   41.4960    3.6080 C.3   197  TYR197      0.0574
    113  CG        17.5800   42.4150    3.3190 C.ar  197  TYR197     -0.0198
    114  CD1       18.8250   42.1700    3.9220 C.ar  197  TYR197     -0.0009
    115  CD2       17.4300   43.5060    2.4550 C.ar  197  TYR197     -0.0009
    116  CE1       19.9120   43.0180    3.6570 C.ar  197  TYR197      0.0417
    117  CE2       18.5160   44.3520    2.1930 C.ar  197  TYR197      0.0417
    118  CZ        19.7550   44.1080    2.7930 C.ar  197  TYR197      0.1957
    119  OH        20.8070   44.9330    2.5380 O.3   197  TYR197     -0.2866
    120  N         15.5170   41.2790    0.7780 N.am  198  GLY198     -0.1940
    121  CA        15.4750   41.7400   -0.6150 C.3   198  GLY198      0.2014
    122  C         14.2950   42.6890   -0.8060 C.2   198  GLY198      0.2639
    123  O         13.6940   43.1570    0.1700 O.2   198  GLY198     -0.2714
    124  N         13.9770   42.9610   -2.0650 N.am  199  LYS199     -0.1963
    125  CA        12.8400   43.8330   -2.3950 C.3   199  LYS199      0.1728
    126  C         11.5560   43.1530   -1.9270 C.2   199  LYS199      0.2616
    127  O         11.3770   41.9360   -2.1210 O.2   199  LYS199     -0.2715
    128  CB        12.7370   44.0730   -3.9070 C.3   199  LYS199      0.0311
    129  CG        13.9050   44.8660   -4.4930 C.3   199  LYS199      0.0038
    130  CD        13.7420   45.1260   -5.9960 C.3   199  LYS199      0.0206
    131  CE        15.0200   45.6380   -6.6640 C.3   199  LYS199      0.1093
    132  NZ        15.9340   44.5560   -7.0610 N.3   199  LYS199     -0.1314
    133  N         10.5560   43.8580   -1.4710 N.am  200  SER200     -0.1950
    134  CA         9.2790   43.2740   -1.0810 C.3   200  SER200      0.1924
    135  C          8.6460   42.4820   -2.2240 C.2   200  SER200      0.2314
    136  O          7.9390   41.4980   -1.9960 O.2   200  SER200     -0.2863
    137  CB         8.3130   44.3700   -0.6220 C.3   200  SER200      0.2116
    138  OG         7.9700   45.2280   -1.7020 O.3   200  SER200     -0.2180
    139  N         10.0780   40.5950   -4.3500 N.3   202  GLY202     -0.1225
    140  CA        10.6690   39.2810   -4.4930 C.3   202  GLY202      0.1811
    141  C         11.5190   39.2980   -5.7520 C.2   202  GLY202      0.2280
    142  O         12.1160   38.2860   -6.1320 O.2   202  GLY202     -0.2866
    143  N         18.7530   39.5760   -4.4580 N.3   206  GLU206     -0.1245
    144  CA        18.5270   39.7360   -3.0150 C.3   206  GLU206      0.1567
    145  C         19.8440   39.5820   -2.2560 C.2   206  GLU206      0.2260
    146  O         20.9130   39.4120   -2.8610 O.2   206  GLU206     -0.2867
    147  CB        17.5460   38.6780   -2.5200 C.3   206  GLU206      0.0388
    148  CG        17.9490   37.2590   -2.9140 C.3   206  GLU206      0.1160
    149  CD        16.8710   36.2330   -2.5860 C.2   206  GLU206      0.3649
    150  OE1       16.2020   36.3370   -1.4890 O.co2 206  GLU206     -0.2457
    151  OE2       16.6300   35.2690   -3.4060 O.co2 206  GLU206     -0.2457
@<TRIPOS>BOND
     1    43    41    1
     2   132   131    1
     3    41    40    1
     4   131   130    1
     5    55    56    1
     6   142   141    2
     7   130   129    1
     8   141   140    1
     9    42    40    1
    10    40    37    1
    11    59    56    1
    12    56    57    1
    13    36    37    1
    14    37    38    1
    15   140   139    1
    16   129   128    1
    17   143   144    1
    18    58    57    2
    19    57    60   am
    20   128   125    1
    21    38    39    2
    22    38    44   am
    23   151   149   ar
    24   144   147    1
    25   144   145    1
    26    60    61    1
    27   148   149    1
    28   148   147    1
    29    53    54   ar
    30    53    51   ar
    31   146   145    2
    32    44    45    1
    33    54    52   ar
    34   149   150   ar
    35   125   124    1
    36   125   126    1
    37    51    49   ar
    38   135   136    2
    39   135   134    1
    40   127   126    2
    41    63    62    2
    42   124   122   am
    43   126   133   am
    44    73    75   ar
    45    73    71   ar
    46    52    50   ar
    47    61    62    1
    48    61    64    1
    49   138   137    1
    50    75    74   ar
    51    71    70   ar
    52    74    72   ar
    53   133   134    1
    54    62    65   am
    55    49    50   ar
    56    49    48    1
    57    70    72   ar
    58    70    69    1
    59    45    48    1
    60    45    46    1
    61    69    66    1
    62   134   137    1
    63   122   121    1
    64   122   123    2
    65    47    46    2
    66   121   120    1
    67    65    66    1
    68    66    67    1
    69   111   110    2
    70   120   110   am
    71    67    76   am
    72    67    68    2
    73    84    83    1
    74   110   109    1
    75    76    77    1
    76   101    99    1
    77   117   115   ar
    78   117   118   ar
    79    83    82    1
    80   115   113   ar
    81    82    81    1
    82   119   118    1
    83    81    80    1
    84   109   108    1
    85   109   112    1
    86   100    99    1
    87   118   116   ar
    88    77    80    1
    89    77    78    1
    90    79    78    2
    91    99    96    1
    92   108   104   am
    93   113   112    1
    94   113   114   ar
    95    96    95    1
    96    96    97    1
    97   116   114   ar
    98    78    85   am
    99   102    97   am
   100   102   103    1
   101   104   103    1
   102   104   105    2
   103    97    98    2
   104    85    86    1
   105   103   106    1
   106   106   107    1
   107    87    86    1
   108    87    88    2
   109    89    90    1
   110    11     9    1
   111    90    93    1
   112    90    91    1
   113    94    93    1
   114    35    33    1
   115     9    10    1
   116     9     8    2
   117    91    92    2
   118    31    30    2
   119     8     7    1
   120    32    33    1
   121    32    34    1
   122    32    29    1
   123    26    27   ar
   124    26    24   ar
   125    30    29    1
   126    27    25   ar
   127    29    28    1
   128     6     7    1
   129     6     5    1
   130    24    23   ar
   131    14    13    1
   132    14    15    2
   133     4     3    2
   134    13    12    1
   135    13    16    1
   136    25    23   ar
   137    23    22    1
   138     3    12   am
   139     3     2    1
   140     5     2    1
   141    17    16    1
   142     2     1    1
   143    22    19    1
   144    19    18    1
   145    19    20    1
   146    20    21    2
