@<TRIPOS>MOLECULE
tmp/1auaA01.pdb
 166 155 0 0 0
SMALL
GASTEIGER

@<TRIPOS>ATOM
      1  N          6.5560   42.3490   17.2650 N.3   119  TYR119     -0.1241
      2  CA         7.8530   42.6290   17.8810 C.3   119  TYR119      0.1605
      3  C          8.7570   43.3900   16.9040 C.2   119  TYR119      0.2264
      4  O          8.9420   42.9660   15.7690 O.2   119  TYR119     -0.2867
      5  CB         8.5060   41.3150   18.3000 C.3   119  TYR119      0.0534
      6  CG         9.9470   41.4440   18.7200 C.ar  119  TYR119     -0.0201
      7  CD1       10.3070   42.2180   19.8160 C.ar  119  TYR119     -0.0009
      8  CD2       10.9600   40.8040   18.0080 C.ar  119  TYR119     -0.0009
      9  CE1       11.6420   42.3560   20.1900 C.ar  119  TYR119      0.0417
     10  CE2       12.2960   40.9370   18.3760 C.ar  119  TYR119      0.0417
     11  CZ        12.6220   41.7190   19.4670 C.ar  119  TYR119      0.1957
     12  OH        13.9350   41.8910   19.8140 O.3   119  TYR119     -0.2866
     13  N         12.5610   45.1290   16.0600 N.3   121  GLU121     -0.1245
     14  CA        13.9810   45.1160   16.4100 C.3   121  GLU121      0.1567
     15  C         14.7520   45.9670   15.4030 C.2   121  GLU121      0.2260
     16  O         14.8750   45.6050   14.2340 O.2   121  GLU121     -0.2867
     17  CB        14.5460   43.6870   16.4590 C.3   121  GLU121      0.0388
     18  CG        15.9820   43.5950   17.0100 C.3   121  GLU121      0.1160
     19  CD        16.4690   42.1680   17.2060 C.2   121  GLU121      0.3649
     20  OE1       15.7960   41.4040   17.9280 O.co2 121  GLU121     -0.2457
     21  OE2       17.5270   41.8050   16.6460 O.co2 121  GLU121     -0.2457
     22  N         17.7840   46.5400   14.4820 N.3   123  LEU123     -0.1245
     23  CA        19.1380   45.9860   14.4730 C.3   123  LEU123      0.1561
     24  C         20.1310   46.8730   13.7580 C.2   123  LEU123      0.2260
     25  O         21.2920   46.9450   14.1460 O.2   123  LEU123     -0.2867
     26  CB        19.1450   44.5960   13.8340 C.3   123  LEU123      0.0270
     27  CG        20.4490   43.7990   13.9410 C.3   123  LEU123      0.0019
     28  CD1       20.8070   43.6190   15.3940 C.3   123  LEU123      0.0001
     29  CD2       20.2870   42.4380   13.2990 C.3   123  LEU123      0.0001
     30  N         10.6490   36.7120   26.2040 N.3   148  TYR148     -0.1241
     31  CA        10.0550   35.5020   25.6430 C.3   148  TYR148      0.1605
     32  C          9.0730   34.9360   26.6690 C.2   148  TYR148      0.2264
     33  O          7.9660   34.5280   26.3160 O.2   148  TYR148     -0.2867
     34  CB        11.1230   34.4520   25.3020 C.3   148  TYR148      0.0534
     35  CG        11.5720   34.4570   23.8550 C.ar  148  TYR148     -0.0201
     36  CD1       10.6530   34.2930   22.8170 C.ar  148  TYR148     -0.0009
     37  CD2       12.9100   34.6360   23.5180 C.ar  148  TYR148     -0.0009
     38  CE1       11.0610   34.3110   21.4820 C.ar  148  TYR148      0.0417
     39  CE2       13.3270   34.6570   22.1890 C.ar  148  TYR148      0.0417
     40  CZ        12.4020   34.4980   21.1810 C.ar  148  TYR148      0.1957
     41  OH        12.8130   34.5480   19.8710 O.3   148  TYR148     -0.2866
     42  N          7.2970   39.5060   13.9190 N.3   172  THR172     -0.1218
     43  CA         8.4740   40.3530   14.0870 C.3   172  THR172      0.1862
     44  C          8.8930   41.2010   12.8870 C.2   172  THR172      0.2287
     45  O          8.7560   40.7880   11.7400 O.2   172  THR172     -0.2866
     46  CB         9.6830   39.5690   14.7120 C.3   172  THR172      0.1770
     47  OG1       10.9160   39.9750   14.1030 O.3   172  THR172     -0.2211
     48  CG2        9.4890   38.0580   14.6140 C.3   172  THR172      0.0375
     49  N         12.1490   43.5230   11.7040 N.3   174  MET174     -0.1245
     50  CA        13.5390   43.8920   11.9080 C.3   174  MET174      0.1570
     51  C         13.9380   44.9500   10.9040 C.2   174  MET174      0.2261
     52  O         13.7500   44.7780    9.7040 O.2   174  MET174     -0.2867
     53  CB        14.4260   42.6630   11.7570 C.3   174  MET174      0.0387
     54  CG        15.8720   42.8690   12.1590 C.3   174  MET174      0.0595
     55  SD        16.7060   41.2870   12.2920 S.3   174  MET174     -0.1393
     56  CE        15.9790   40.6200   13.8420 C.3   174  MET174      0.0692
     57  N         16.9010   47.1320    9.1960 N.3   176  LEU176     -0.1245
     58  CA        18.3330   47.1420    8.9130 C.3   176  LEU176      0.1561
     59  C         18.8540   48.5000    8.4950 C.2   176  LEU176      0.2260
     60  O         20.0030   48.6230    8.0940 O.2   176  LEU176     -0.2867
     61  CB        18.6880   46.1110    7.8420 C.3   176  LEU176      0.0270
     62  CG        18.3340   44.6510    8.1320 C.3   176  LEU176      0.0019
     63  CD1       19.0610   43.7500    7.1490 C.3   176  LEU176      0.0001
     64  CD2       18.7290   44.2840    9.5500 C.3   176  LEU176      0.0001
     65  N         22.7640   49.5220    8.8930 N.3   179  ILE179     -0.1245
     66  CA        23.7780   48.4820    9.0920 C.3   179  ILE179      0.1561
     67  C         25.0190   48.7230    8.2620 C.2   179  ILE179      0.2260
     68  O         24.9640   49.2990    7.1780 O.2   179  ILE179     -0.2867
     69  CB        23.3370   47.0580    8.7180 C.3   179  ILE179      0.0252
     70  CG1       22.4290   47.0820    7.4980 C.3   179  ILE179      0.0019
     71  CG2       22.8620   46.2970    9.9370 C.3   179  ILE179      0.0019
     72  CD1       22.1570   45.7150    6.9600 C.3   179  ILE179      0.0001
     73  N         23.3690   37.6940   17.9940 N.3   191  VAL191     -0.1245
     74  CA        22.4000   37.1620   17.0450 C.3   191  VAL191      0.1561
     75  C         22.4940   35.6410   16.9580 C.2   191  VAL191      0.2260
     76  O         21.4730   34.9610   16.9520 O.2   191  VAL191     -0.2867
     77  CB        22.5680   37.8070   15.6430 C.3   191  VAL191      0.0252
     78  CG1       21.7180   37.0800   14.6010 C.3   191  VAL191      0.0019
     79  CG2       22.1770   39.2830   15.7090 C.3   191  VAL191      0.0019
     80  N         21.1220   34.3220   20.3520 N.3   194  ALA194     -0.1231
     81  CA        19.6790   34.5390   20.4220 C.3   194  ALA194      0.1694
     82  C         18.9570   33.5690   19.4940 C.2   194  ALA194      0.2592
     83  O         17.8720   33.0950   19.8150 O.2   194  ALA194     -0.2718
     84  CB        19.3360   35.9750   20.0480 C.3   194  ALA194      0.0304
     85  N         19.5580   33.2900   18.3380 N.am  195  SER195     -0.1952
     86  CA        18.9740   32.3520   17.3860 C.3   195  SER195      0.1924
     87  C         18.9590   30.9550   17.9930 C.2   195  SER195      0.2314
     88  O         17.9950   30.2110   17.8210 O.2   195  SER195     -0.2863
     89  CB        19.7430   32.3400   16.0600 C.3   195  SER195      0.2116
     90  OG        19.3720   33.4430   15.2510 O.3   195  SER195     -0.2180
     91  N         15.9450   30.6540   20.7000 N.3   198  SER198     -0.1202
     92  CA        14.5750   30.5430   20.2140 C.3   198  SER198      0.2020
     93  C         14.1900   29.3070   19.4080 C.2   198  SER198      0.2618
     94  O         13.2320   28.6360   19.7690 O.2   198  SER198     -0.2717
     95  CB        14.1050   31.8200   19.5060 C.3   198  SER198      0.2103
     96  OG        15.1510   32.4680   18.8140 O.3   198  SER198     -0.2182
     97  N         14.9070   28.9780   18.3350 N.am  199  GLN199     -0.1979
     98  CA        14.5100   27.7950   17.5680 C.3   199  GLN199      0.1601
     99  C         14.8560   26.4480   18.1890 C.2   199  GLN199      0.2287
    100  O         14.7430   25.4050   17.5440 O.2   199  GLN199     -0.2864
    101  CB        14.9380   27.8740   16.0970 C.3   199  GLN199      0.0394
    102  CG        16.3350   28.3670   15.8210 C.3   199  GLN199      0.0908
    103  CD        16.5080   28.8460   14.3770 C.2   199  GLN199      0.2608
    104  OE1       17.6300   29.0030   13.8940 O.2   199  GLN199     -0.2717
    105  NE2       15.3930   29.0940   13.6900 N.am  199  GLN199     -0.0878
    106  N         12.1540   27.7530   22.0500 N.3   202  TYR202     -0.1241
    107  CA        10.9290   28.5090   21.7410 C.3   202  TYR202      0.1605
    108  C         10.5730   28.2830   20.2590 C.2   202  TYR202      0.2264
    109  O         10.3680   29.2450   19.5070 O.2   202  TYR202     -0.2867
    110  CB        11.1550   30.0100   21.9910 C.3   202  TYR202      0.0534
    111  CG        11.4370   30.3690   23.4360 C.ar  202  TYR202     -0.0201
    112  CD1       10.4040   30.4470   24.3640 C.ar  202  TYR202     -0.0009
    113  CD2       12.7390   30.6000   23.8810 C.ar  202  TYR202     -0.0009
    114  CE1       10.6520   30.7410   25.7030 C.ar  202  TYR202      0.0417
    115  CE2       13.0000   30.8960   25.2230 C.ar  202  TYR202      0.0417
    116  CZ        11.9490   30.9640   26.1290 C.ar  202  TYR202      0.1957
    117  OH        12.1880   31.2530   27.4540 O.3   202  TYR202     -0.2866
    118  N          7.4120   29.5910   17.4600 N.3   205  ARG205     -0.1231
    119  CA         6.9470   30.8340   18.0440 C.3   205  ARG205      0.1694
    120  C          6.9810   31.9740   17.0340 C.2   205  ARG205      0.2591
    121  O          6.4960   33.0660   17.3160 O.2   205  ARG205     -0.2718
    122  CB         7.7600   31.1930   19.2830 C.3   205  ARG205      0.0321
    123  CG         7.4010   30.3710   20.5050 C.3   205  ARG205      0.0489
    124  CD         5.9930   30.6660   20.9890 C.3   205  ARG205      0.2205
    125  NE         5.7360   30.0860   22.3050 N.pl3 205  ARG205     -0.0865
    126  CZ         4.5370   29.7240   22.7540 C.cat 205  ARG205      0.5346
    127  NH1        3.4530   29.8740   22.0000 N.pl3 205  ARG205      0.1354
    128  NH2        4.4230   29.1960   23.9650 N.pl3 205  ARG205      0.1354
    129  N          7.5840   31.7270   15.8720 N.am  206  MET206     -0.1979
    130  CA         7.6620   32.7140   14.8010 C.3   206  MET206      0.1605
    131  C          6.5390   32.4240   13.8160 C.2   206  MET206      0.2287
    132  O          6.4630   31.3280   13.2490 O.2   206  MET206     -0.2864
    133  CB         8.9890   32.6100   14.0540 C.3   206  MET206      0.0413
    134  CG         9.0380   33.4890   12.8060 C.3   206  MET206      0.0598
    135  SD        10.0370   32.7670   11.4930 S.3   206  MET206     -0.1393
    136  CE        11.6000   33.5490   11.8120 C.3   206  MET206      0.0692
    137  N          7.8880   36.9240    9.6700 N.3   209  PHE209     -0.1241
    138  CA         9.1770   37.6010    9.8250 C.3   209  PHE209      0.1605
    139  C          9.4300   38.5880    8.6800 C.2   209  PHE209      0.2264
    140  O          9.5250   38.1910    7.5190 O.2   209  PHE209     -0.2867
    141  CB        10.2980   36.5510    9.8700 C.3   209  PHE209      0.0534
    142  CG        11.6250   37.0920   10.3110 C.ar  209  PHE209     -0.0203
    143  CD1       11.8600   37.3850   11.6470 C.ar  209  PHE209     -0.0042
    144  CD2       12.6370   37.3260    9.3900 C.ar  209  PHE209     -0.0042
    145  CE1       13.0830   37.9070   12.0630 C.ar  209  PHE209     -0.0003
    146  CE2       13.8650   37.8500    9.7980 C.ar  209  PHE209     -0.0003
    147  CZ        14.0830   38.1410   11.1370 C.ar  209  PHE209     -0.0000
    148  N         11.9080   41.7540    7.2200 N.3   211  ILE211     -0.1245
    149  CA        13.1630   42.4850    7.2850 C.3   211  ILE211      0.1561
    150  C         12.9550   43.6620    6.3380 C.2   211  ILE211      0.2260
    151  O         12.7050   43.4720    5.1470 O.2   211  ILE211     -0.2867
    152  CB        14.3700   41.6410    6.8350 C.3   211  ILE211      0.0252
    153  CG1       14.6570   40.5540    7.8640 C.3   211  ILE211      0.0019
    154  CG2       15.6010   42.5220    6.6680 C.3   211  ILE211      0.0019
    155  CD1       15.9180   39.7800    7.6000 C.3   211  ILE211      0.0001
    156  N         21.9130   42.0540   -0.2650 N.3   218  PHE218     -0.1241
    157  CA        21.1770   41.1580    0.6110 C.3   218  PHE218      0.1605
    158  C         19.7910   40.8460    0.0680 C.2   218  PHE218      0.2264
    159  O         19.3790   39.6900    0.0210 O.2   218  PHE218     -0.2867
    160  CB        21.0630   41.7900    1.9920 C.3   218  PHE218      0.0534
    161  CG        20.4940   40.8750    3.0250 C.ar  218  PHE218     -0.0203
    162  CD1       21.3280   40.0510    3.7710 C.ar  218  PHE218     -0.0042
    163  CD2       19.1200   40.8370    3.2550 C.ar  218  PHE218     -0.0042
    164  CE1       20.8050   39.1970    4.7310 C.ar  218  PHE218     -0.0003
    165  CE2       18.5860   39.9880    4.2100 C.ar  218  PHE218     -0.0003
    166  CZ        19.4310   39.1650    4.9530 C.ar  218  PHE218     -0.0000
@<TRIPOS>BOND
     1   156   157    1
     2   159   158    2
     3   158   157    1
     4   157   160    1
     5   160   161    1
     6   161   163   ar
     7   161   162   ar
     8   163   165   ar
     9   162   164   ar
    10   165   166   ar
    11   164   166   ar
    12   151   150    2
    13   150   149    1
    14   154   152    1
    15   152   149    1
    16   152   153    1
    17    72    70    1
    18    63    62    1
    19    68    67    2
    20   148   149    1
    21    70    69    1
    22   140   139    2
    23   155   153    1
    24    61    62    1
    25    61    58    1
    26    60    59    2
    27    62    64    1
    28    67    66    1
    29    59    58    1
    30   139   138    1
    31    69    66    1
    32    69    71    1
    33    65    66    1
    34    58    57    1
    35   144   146   ar
    36   144   142   ar
    37   137   138    1
    38    52    51    2
    39   146   147   ar
    40   138   141    1
    41   141   142    1
    42   142   143   ar
    43    51    50    1
    44   147   145   ar
    45   135   136    1
    46   135   134    1
    47   143   145   ar
    48    49    50    1
    49    45    44    2
    50    53    50    1
    51    53    54    1
    52    54    55    1
    53    55    56    1
    54   134   133    1
    55    44    43    1
    56   132   131    2
    57    29    27    1
    58   105   103   am
    59    24    25    2
    60    24    23    1
    61   131   130    1
    62    26    27    1
    63    26    23    1
    64   104   103    2
    65    42    43    1
    66    27    28    1
    67   133   130    1
    68    43    46    1
    69    47    46    1
    70    16    15    2
    71   103   102    1
    72    23    22    1
    73    78    77    1
    74    48    46    1
    75   130   129    1
    76    90    89    1
    77    15    14    1
    78    77    79    1
    79    77    74    1
    80     4     3    2
    81   102   101    1
    82   129   120   am
    83    13    14    1
    84    89    86    1
    85   101    98    1
    86    14    17    1
    87    17    18    1
    88    21    19   ar
    89     3     2    1
    90    76    75    2
    91    75    74    1
    92    18    19    1
    93   120   121    2
    94   120   119    1
    95    74    73    1
    96    19    20   ar
    97     1     2    1
    98    86    87    1
    99    86    85    1
   100   118   119    1
   101   100    99    2
   102    98    99    1
   103    98    97    1
   104    88    87    2
   105     2     5    1
   106     8    10   ar
   107     8     6   ar
   108   119   122    1
   109     5     6    1
   110    97    93   am
   111    85    82   am
   112    10    11   ar
   113     6     7   ar
   114    96    95    1
   115   122   123    1
   116    93    94    2
   117    93    92    1
   118    11    12    1
   119    11     9   ar
   120    82    83    2
   121    82    81    1
   122    95    92    1
   123   109   108    2
   124     7     9   ar
   125    41    40    1
   126    84    81    1
   127    92    91    1
   128   108   107    1
   129    80    81    1
   130   123   124    1
   131   124   125    1
   132    40    38   ar
   133    40    39   ar
   134    38    36   ar
   135   107   110    1
   136   107   106    1
   137   110   111    1
   138   127   126    1
   139    39    37   ar
   140   125   126    2
   141   126   128    1
   142    36    35   ar
   143   111   113   ar
   144   111   112   ar
   145    37    35   ar
   146    35    34    1
   147   113   115   ar
   148   112   114   ar
   149   115   116   ar
   150    34    31    1
   151    31    30    1
   152    31    32    1
   153   114   116   ar
   154   116   117    1
   155    33    32    2
