@<TRIPOS>MOLECULE
tmp/1auaA00.pdb
 162 155 0 0 0
SMALL
GASTEIGER

@<TRIPOS>ATOM
      1  N          5.8430   19.7240   15.5390 N.3    60  ARG60      -0.1231
      2  CA         5.9050   20.4630   14.2790 C.3    60  ARG60       0.1694
      3  C          7.3220   20.8630   13.8660 C.2    60  ARG60       0.2591
      4  O          7.6450   20.8970   12.6750 O.2    60  ARG60      -0.2718
      5  CB         4.9980   21.6980   14.3320 C.3    60  ARG60       0.0321
      6  CG         3.7210   21.5620   13.5090 C.3    60  ARG60       0.0489
      7  CD         2.8550   22.8220   13.5630 C.3    60  ARG60       0.2205
      8  NE         2.1580   22.9690   14.8400 N.pl3  60  ARG60      -0.0865
      9  CZ         2.1850   24.0640   15.5890 C.cat  60  ARG60       0.5346
     10  NH1        2.8780   25.1240   15.2050 N.pl3  60  ARG60       0.1354
     11  NH2        1.4980   24.1040   16.7140 N.pl3  60  ARG60       0.1354
     12  N          8.1600   21.1780   14.8470 N.am   61  ALA61      -0.1980
     13  CA         9.5420   21.5670   14.5820 C.3    61  ALA61       0.1597
     14  C         10.3630   20.3620   14.1100 C.2    61  ALA61       0.2287
     15  O         11.3460   20.5100   13.3800 O.2    61  ALA61      -0.2864
     16  CB        10.1650   22.1700   15.8380 C.3    61  ALA61       0.0319
     17  N          9.1130   17.6150   12.2990 N.3    63  LYS63      -0.1245
     18  CA         8.2990   16.8950   11.3050 C.3    63  LYS63       0.1561
     19  C          7.3440   15.8050   11.8080 C.2    63  LYS63       0.2260
     20  O          6.8830   14.9750   11.0230 O.2    63  LYS63      -0.2867
     21  CB         9.2110   16.3080   10.2200 C.3    63  LYS63       0.0271
     22  CG        10.1640   17.3120    9.6120 C.3    63  LYS63       0.0035
     23  CD         9.3890   18.4840    9.0500 C.3    63  LYS63       0.0206
     24  CE        10.3180   19.5980    8.6220 C.3    63  LYS63       0.1093
     25  NZ         9.5420   20.7580    8.0990 N.3    63  LYS63      -0.1314
     26  N         19.5580   33.2900   18.3380 N.3   195  SER195     -0.1217
     27  CA        18.9740   32.3520   17.3860 C.3   195  SER195      0.1889
     28  C         18.9590   30.9550   17.9930 C.2   195  SER195      0.2288
     29  O         17.9950   30.2110   17.8210 O.2   195  SER195     -0.2866
     30  CB        19.7430   32.3400   16.0600 C.3   195  SER195      0.2089
     31  OG        19.3720   33.4430   15.2510 O.3   195  SER195     -0.2183
     32  N         15.9450   30.6540   20.7000 N.3   198  SER198     -0.1202
     33  CA        14.5750   30.5430   20.2140 C.3   198  SER198      0.2020
     34  C         14.1900   29.3070   19.4080 C.2   198  SER198      0.2618
     35  O         13.2320   28.6360   19.7690 O.2   198  SER198     -0.2717
     36  CB        14.1050   31.8200   19.5060 C.3   198  SER198      0.2103
     37  OG        15.1510   32.4680   18.8140 O.3   198  SER198     -0.2182
     38  N         14.9070   28.9780   18.3350 N.am  199  GLN199     -0.1979
     39  CA        14.5100   27.7950   17.5680 C.3   199  GLN199      0.1601
     40  C         14.8560   26.4480   18.1890 C.2   199  GLN199      0.2287
     41  O         14.7430   25.4050   17.5440 O.2   199  GLN199     -0.2864
     42  CB        14.9380   27.8740   16.0970 C.3   199  GLN199      0.0394
     43  CG        16.3350   28.3670   15.8210 C.3   199  GLN199      0.0908
     44  CD        16.5080   28.8460   14.3770 C.2   199  GLN199      0.2608
     45  OE1       17.6300   29.0030   13.8940 O.2   199  GLN199     -0.2717
     46  NE2       15.3930   29.0940   13.6900 N.am  199  GLN199     -0.0878
     47  N         12.1540   27.7530   22.0500 N.3   202  TYR202     -0.1228
     48  CA        10.9290   28.5090   21.7410 C.3   202  TYR202      0.1721
     49  C         10.5730   28.2830   20.2590 C.2   202  TYR202      0.2437
     50  O         10.3680   29.2450   19.5070 O.2   202  TYR202     -0.2733
     51  CB        11.1550   30.0100   21.9910 C.3   202  TYR202      0.0547
     52  CG        11.4370   30.3690   23.4360 C.ar  202  TYR202     -0.0200
     53  CD1       10.4040   30.4470   24.3640 C.ar  202  TYR202     -0.0009
     54  CD2       12.7390   30.6000   23.8810 C.ar  202  TYR202     -0.0009
     55  CE1       10.6520   30.7410   25.7030 C.ar  202  TYR202      0.0417
     56  CE2       13.0000   30.8960   25.2230 C.ar  202  TYR202      0.0417
     57  CZ        11.9490   30.9640   26.1290 C.ar  202  TYR202      0.1957
     58  OH        12.1880   31.2530   27.4540 O.3   202  TYR202     -0.2866
     59  N         10.5030   27.0110   19.8190 N.am  203  PRO203     -0.2718
     60  CA        10.1860   26.6800   18.4280 C.3   203  PRO203      0.1535
     61  C          8.7450   26.9560   18.0610 C.2   203  PRO203      0.2598
     62  O          7.8660   26.9420   18.9160 O.2   203  PRO203     -0.2715
     63  CB        10.5020   25.1910   18.3590 C.3   203  PRO203      0.0310
     64  CG        10.0770   24.7200   19.6920 C.3   203  PRO203      0.0237
     65  CD        10.6250   25.7810   20.6250 C.3   203  PRO203      0.0939
     66  N          8.5180   27.1930   16.7760 N.am  204  GLU204     -0.1964
     67  CA         7.1930   27.4880   16.2560 C.3   204  GLU204      0.1733
     68  C          6.5700   28.7480   16.8660 C.2   204  GLU204      0.2616
     69  O          5.3570   28.9460   16.8110 O.2   204  GLU204     -0.2715
     70  CB         6.2640   26.2740   16.3970 C.3   204  GLU204      0.0429
     71  CG         6.3990   25.2550   15.2660 C.3   204  GLU204      0.1163
     72  CD         6.0940   25.8560   13.8860 C.2   204  GLU204      0.3649
     73  OE1        5.3520   26.8670   13.7860 O.co2 204  GLU204     -0.2457
     74  OE2        6.5780   25.3000   12.8820 O.co2 204  GLU204     -0.2457
     75  N          7.4120   29.5910   17.4600 N.am  205  ARG205     -0.1963
     76  CA         6.9470   30.8340   18.0440 C.3   205  ARG205      0.1729
     77  C          6.9810   31.9740   17.0340 C.2   205  ARG205      0.2616
     78  O          6.4960   33.0660   17.3160 O.2   205  ARG205     -0.2715
     79  CB         7.7600   31.1930   19.2830 C.3   205  ARG205      0.0348
     80  CG         7.4010   30.3710   20.5050 C.3   205  ARG205      0.0492
     81  CD         5.9930   30.6660   20.9890 C.3   205  ARG205      0.2205
     82  NE         5.7360   30.0860   22.3050 N.pl3 205  ARG205     -0.0865
     83  CZ         4.5370   29.7240   22.7540 C.cat 205  ARG205      0.5346
     84  NH1        3.4530   29.8740   22.0000 N.pl3 205  ARG205      0.1354
     85  NH2        4.4230   29.1960   23.9650 N.pl3 205  ARG205      0.1354
     86  N          7.5840   31.7270   15.8720 N.am  206  MET206     -0.1977
     87  CA         7.6620   32.7140   14.8010 C.3   206  MET206      0.1605
     88  C          6.5390   32.4240   13.8160 C.2   206  MET206      0.2287
     89  O          6.4630   31.3280   13.2490 O.2   206  MET206     -0.2864
     90  CB         8.9890   32.6100   14.0540 C.3   206  MET206      0.0413
     91  CG         9.0380   33.4890   12.8060 C.3   206  MET206      0.0598
     92  SD        10.0370   32.7670   11.4930 S.3   206  MET206     -0.1393
     93  CE        11.6000   33.5490   11.8120 C.3   206  MET206      0.0692
     94  N          7.8880   36.9240    9.6700 N.3   209  PHE209     -0.1241
     95  CA         9.1770   37.6010    9.8250 C.3   209  PHE209      0.1605
     96  C          9.4300   38.5880    8.6800 C.2   209  PHE209      0.2264
     97  O          9.5250   38.1910    7.5190 O.2   209  PHE209     -0.2867
     98  CB        10.2980   36.5510    9.8700 C.3   209  PHE209      0.0534
     99  CG        11.6250   37.0920   10.3110 C.ar  209  PHE209     -0.0203
    100  CD1       11.8600   37.3850   11.6470 C.ar  209  PHE209     -0.0042
    101  CD2       12.6370   37.3260    9.3900 C.ar  209  PHE209     -0.0042
    102  CE1       13.0830   37.9070   12.0630 C.ar  209  PHE209     -0.0003
    103  CE2       13.8650   37.8500    9.7980 C.ar  209  PHE209     -0.0003
    104  CZ        14.0830   38.1410   11.1370 C.ar  209  PHE209     -0.0000
    105  N         11.9080   41.7540    7.2200 N.3   211  ILE211     -0.1245
    106  CA        13.1630   42.4850    7.2850 C.3   211  ILE211      0.1561
    107  C         12.9550   43.6620    6.3380 C.2   211  ILE211      0.2260
    108  O         12.7050   43.4720    5.1470 O.2   211  ILE211     -0.2867
    109  CB        14.3700   41.6410    6.8350 C.3   211  ILE211      0.0252
    110  CG1       14.6570   40.5540    7.8640 C.3   211  ILE211      0.0019
    111  CG2       15.6010   42.5220    6.6680 C.3   211  ILE211      0.0019
    112  CD1       15.9180   39.7800    7.6000 C.3   211  ILE211      0.0001
    113  N         21.9130   42.0540   -0.2650 N.3   218  PHE218     -0.1241
    114  CA        21.1770   41.1580    0.6110 C.3   218  PHE218      0.1605
    115  C         19.7910   40.8460    0.0680 C.2   218  PHE218      0.2264
    116  O         19.3790   39.6900    0.0210 O.2   218  PHE218     -0.2867
    117  CB        21.0630   41.7900    1.9920 C.3   218  PHE218      0.0534
    118  CG        20.4940   40.8750    3.0250 C.ar  218  PHE218     -0.0203
    119  CD1       21.3280   40.0510    3.7710 C.ar  218  PHE218     -0.0042
    120  CD2       19.1200   40.8370    3.2550 C.ar  218  PHE218     -0.0042
    121  CE1       20.8050   39.1970    4.7310 C.ar  218  PHE218     -0.0003
    122  CE2       18.5860   39.9880    4.2100 C.ar  218  PHE218     -0.0003
    123  CZ        19.4310   39.1650    4.9530 C.ar  218  PHE218     -0.0000
    124  N          6.8450   26.5330    2.7500 N.3   232  VAL232     -0.1231
    125  CA         6.4640   26.7180    4.1470 C.3   232  VAL232      0.1692
    126  C          7.2310   27.8830    4.7800 C.2   232  VAL232      0.2592
    127  O          6.7210   28.5590    5.6730 O.2   232  VAL232     -0.2718
    128  CB         6.7260   25.4370    4.9740 C.3   232  VAL232      0.0266
    129  CG1        6.1120   25.5650    6.3610 C.3   232  VAL232      0.0020
    130  CG2        6.1830   24.2080    4.2470 C.3   232  VAL232      0.0020
    131  N          8.4520   28.1170    4.3030 N.am  233  THR233     -0.1953
    132  CA         9.3080   29.1840    4.8150 C.3   233  THR233      0.1897
    133  C          9.1480   30.5170    4.0740 C.2   233  THR233      0.2313
    134  O          9.3850   31.5800    4.6450 O.2   233  THR233     -0.2863
    135  CB        10.7880   28.7260    4.8530 C.3   233  THR233      0.1794
    136  OG1       10.9220   27.6770    5.8220 O.3   233  THR233     -0.2208
    137  CG2       11.7270   29.8720    5.2300 C.3   233  THR233      0.0378
    138  N          6.4110   32.7250    5.5820 N.3   236  LYS236     -0.1231
    139  CA         6.7310   33.4240    6.8240 C.3   236  LYS236      0.1693
    140  C          7.7920   34.5220    6.6820 C.2   236  LYS236      0.2591
    141  O          7.7170   35.5350    7.3680 O.2   236  LYS236     -0.2718
    142  CB         7.1830   32.4170    7.8960 C.3   236  LYS236      0.0285
    143  CG         6.1480   31.3610    8.2840 C.3   236  LYS236      0.0035
    144  CD         6.6790   30.4050    9.3540 C.3   236  LYS236      0.0206
    145  CE         5.6030   29.4260    9.8080 C.3   236  LYS236      0.1093
    146  NZ         6.0890   28.4710   10.8480 N.3   236  LYS236     -0.1314
    147  N          8.7720   34.3330    5.7990 N.am  237  ILE237     -0.1980
    148  CA         9.8430   35.3120    5.6270 C.3   237  ILE237      0.1595
    149  C          9.6040   36.3030    4.4930 C.2   237  ILE237      0.2287
    150  O          9.3250   35.9060    3.3580 O.2   237  ILE237     -0.2864
    151  CB        11.2050   34.6270    5.3660 C.3   237  ILE237      0.0276
    152  CG1       11.4420   33.4860    6.3600 C.3   237  ILE237      0.0022
    153  CG2       12.3280   35.6440    5.4660 C.3   237  ILE237      0.0022
    154  CD1       11.4340   33.9120    7.8120 C.3   237  ILE237      0.0001
    155  N         11.5170   39.7500    2.7710 N.3   239  ILE239     -0.1245
    156  CA        12.7010   40.6130    2.6510 C.3   239  ILE239      0.1561
    157  C         12.3530   41.7370    1.6820 C.2   239  ILE239      0.2260
    158  O         12.2260   41.5250    0.4730 O.2   239  ILE239     -0.2867
    159  CB        13.9370   39.8540    2.0960 C.3   239  ILE239      0.0252
    160  CG1       14.1040   38.4900    2.7860 C.3   239  ILE239      0.0019
    161  CG2       15.1900   40.7000    2.2810 C.3   239  ILE239      0.0019
    162  CD1       14.3410   38.5430    4.2790 C.3   239  ILE239      0.0001
@<TRIPOS>BOND
     1   113   114    1
     2   116   115    2
     3   115   114    1
     4   158   157    2
     5   114   117    1
     6   157   156    1
     7   117   118    1
     8   159   161    1
     9   159   156    1
    10   159   160    1
    11   156   155    1
    12   124   125    1
    13   160   162    1
    14   118   120   ar
    15   118   119   ar
    16   120   122   ar
    17   150   149    2
    18   119   121   ar
    19   133   134    2
    20   133   132    1
    21   125   126    1
    22   125   128    1
    23   122   123   ar
    24   130   128    1
    25   131   126   am
    26   131   132    1
    27   149   148    1
    28   121   123   ar
    29   126   127    2
    30   132   135    1
    31   135   137    1
    32   135   136    1
    33   128   129    1
    34   108   107    2
    35   151   153    1
    36   151   148    1
    37   151   152    1
    38   138   139    1
    39   148   147    1
    40   147   140   am
    41   107   106    1
    42   152   154    1
    43   111   109    1
    44   140   139    1
    45   140   141    2
    46   139   142    1
    47   109   106    1
    48   109   110    1
    49   105   106    1
    50    97    96    2
    51   112   110    1
    52   142   143    1
    53    25    24    1
    54   143   144    1
    55    24    23    1
    56    96    95    1
    57    23    22    1
    58   144   145    1
    59   101   103   ar
    60   101    99   ar
    61    22    21    1
    62    94    95    1
    63   103   104   ar
    64   145   146    1
    65    95    98    1
    66    98    99    1
    67    21    18    1
    68    99   100   ar
    69    20    19    2
    70   104   102   ar
    71    18    19    1
    72    18    17    1
    73    92    93    1
    74    92    91    1
    75   100   102   ar
    76     4     3    2
    77    91    90    1
    78    74    72   ar
    79    89    88    2
    80    15    14    2
    81     6     7    1
    82     6     5    1
    83     7     8    1
    84    46    44   am
    85    73    72   ar
    86    88    87    1
    87     3     2    1
    88     3    12   am
    89    72    71    1
    90    45    44    2
    91    90    87    1
    92    14    13    1
    93     2     5    1
    94     2     1    1
    95    44    43    1
    96    13    12    1
    97    13    16    1
    98    87    86    1
    99     8     9    2
   100    10     9    1
   101    31    30    1
   102    71    70    1
   103     9    11    1
   104    43    42    1
   105    86    77   am
   106    30    27    1
   107    42    39    1
   108    67    70    1
   109    67    66    1
   110    67    68    1
   111    66    61   am
   112    69    68    2
   113    68    75   am
   114    77    78    2
   115    77    76    1
   116    27    28    1
   117    27    26    1
   118    75    76    1
   119    41    40    2
   120    39    40    1
   121    39    38    1
   122    29    28    2
   123    76    79    1
   124    61    60    1
   125    61    62    2
   126    38    34   am
   127    63    60    1
   128    63    64    1
   129    60    59    1
   130    37    36    1
   131    79    80    1
   132    34    35    2
   133    34    33    1
   134    36    33    1
   135    50    49    2
   136    64    65    1
   137    59    49   am
   138    59    65    1
   139    33    32    1
   140    49    48    1
   141    80    81    1
   142    81    82    1
   143    48    51    1
   144    48    47    1
   145    51    52    1
   146    84    83    1
   147    82    83    2
   148    83    85    1
   149    52    54   ar
   150    52    53   ar
   151    54    56   ar
   152    53    55   ar
   153    56    57   ar
   154    55    57   ar
   155    57    58    1
