@<TRIPOS>MOLECULE
tmp/1aujA00.pdb
 138 135 0 0 0
SMALL
GASTEIGER

@<TRIPOS>ATOM
      1  N         20.1150   12.3690   25.2650 N.3    40  HIS40      -0.1241
      2  CA        21.1090   11.3000   25.2680 C.3    40  HIS40       0.1621
      3  C         22.1910   11.4750   26.3380 C.2    40  HIS40       0.2264
      4  O         22.9940   10.5740   26.5540 O.2    40  HIS40      -0.2867
      5  CB        21.6090   11.0010   23.8490 C.3    40  HIS40       0.0745
      6  CG        22.8290   11.7760   23.4530 C.ar   40  HIS40       0.0817
      7  ND1       22.7850   12.8370   22.5750 N.ar   40  HIS40      -0.2268
      8  CD2       24.1340   11.6230   23.7920 C.ar   40  HIS40       0.1154
      9  CE1       24.0040   13.3090   22.3930 C.ar   40  HIS40       0.1986
     10  NE2       24.8400   12.5880   23.1170 N.ar   40  HIS40      -0.2212
     11  N         15.5920    7.2440   21.3630 N.3    78  SER78      -0.1202
     12  CA        17.0130    6.9630   21.5080 C.3    78  SER78       0.2020
     13  C         17.6220    6.2770   20.3150 C.2    78  SER78       0.2619
     14  O         18.8430    6.1950   20.2020 O.2    78  SER78      -0.2717
     15  CB        17.2800    6.1760   22.7940 C.3    78  SER78       0.2103
     16  OG        16.6270    4.9170   22.7810 O.3    78  SER78      -0.2182
     17  N         16.7920    5.7420   19.4300 N.am   79  ASN79      -0.1960
     18  CA        17.3180    5.0800   18.2420 C.3    79  ASN79       0.1819
     19  C         17.6180    6.0690   17.1480 C.2    79  ASN79       0.2622
     20  O         18.6950    6.0280   16.5500 O.2    79  ASN79      -0.2715
     21  CB        16.3530    4.0130   17.7240 C.3    79  ASN79       0.1195
     22  CG        16.3610    2.7730   18.5660 C.2    79  ASN79       0.2630
     23  OD1       17.3760    2.4210   19.1860 O.2    79  ASN79      -0.2716
     24  ND2       15.2280    2.0890   18.6010 N.am   79  ASN79      -0.0877
     25  N         16.6960    6.9990   16.9210 N.am   80  THR80      -0.1937
     26  CA        16.8450    7.9820   15.8550 C.3    80  THR80       0.2028
     27  C         17.4080    9.3380   16.3480 C.2    80  THR80       0.2642
     28  O         17.7760   10.2070   15.5480 O.2    80  THR80      -0.2714
     29  CB        15.5030    8.2360   15.1770 C.3    80  THR80       0.1808
     30  OG1       14.5740    8.7530   16.1420 O.3    80  THR80      -0.2208
     31  CG2       14.9330    6.9580   14.5480 C.3    80  THR80       0.0379
     32  N         17.4090    9.5180   17.6670 N.am   81  LEU81      -0.1977
     33  CA        17.8170   10.7710   18.2950 C.3    81  LEU81       0.1596
     34  C         16.8540   11.9010   18.0140 C.2    81  LEU81       0.2287
     35  O         17.1730   13.0720   18.2360 O.2    81  LEU81      -0.2864
     36  CB        19.2900   11.0980   18.0070 C.3    81  LEU81       0.0297
     37  CG        20.3950   10.2520   18.6600 C.3    81  LEU81       0.0022
     38  CD1       21.7430   10.9390   18.4850 C.3    81  LEU81       0.0001
     39  CD2       20.1210   10.0120   20.1400 C.3    81  LEU81       0.0001
     40  N         17.7770   10.3360    7.6210 N.3   155  GLN155     -0.1245
     41  CA        18.0580   10.4580    9.0480 C.3   155  GLN155      0.1566
     42  C         17.7270   11.8160    9.6580 C.2   155  GLN155      0.2260
     43  O         17.7820   11.9350   10.8770 O.2   155  GLN155     -0.2867
     44  CB        19.5400   10.1920    9.3250 C.3   155  GLN155      0.0367
     45  CG        19.8240    8.7610    8.8390 C.3   155  GLN155      0.0905
     46  CD        21.2850    8.6010    8.4540 C.2   155  GLN155      0.2608
     47  OE1       22.1590    8.5110    9.3170 O.2   155  GLN155     -0.2717
     48  NE2       21.5560    8.5710    7.1500 N.am  155  GLN155     -0.0878
     49  N         34.5050   20.7590   13.3200 N.3   171  ASP171     -0.1225
     50  CA        33.2680   20.0890   13.7160 C.3   171  ASP171      0.1805
     51  C         33.1920   19.9150   15.1980 C.2   171  ASP171      0.2598
     52  O         34.1790   20.1180   15.9140 O.2   171  ASP171     -0.2718
     53  CB        33.2410   18.6530   13.1720 C.3   171  ASP171      0.1424
     54  CG        31.8320   18.1910   12.7670 C.2   171  ASP171      0.3668
     55  OD1       30.8350   18.7860   13.2290 O.co2 171  ASP171     -0.2456
     56  OD2       31.7280   17.2200   11.9900 O.co2 171  ASP171     -0.2456
     57  N         32.0030   19.5840   15.6860 N.am  172  SER172     -0.1938
     58  CA        31.8600   19.1190   17.0530 C.3   172  SER172      0.2055
     59  C         32.3390   17.6590   17.0930 C.2   172  SER172      0.2643
     60  O         32.6500   17.0900   16.0420 O.2   172  SER172     -0.2714
     61  CB        30.4550   19.4340   17.5730 C.3   172  SER172      0.2130
     62  OG        29.4640   18.8940   16.7200 O.3   172  SER172     -0.2179
     63  N         32.4450   17.0810   18.2870 N.am  173  CYS173     -0.1953
     64  CA        32.9440   15.7200   18.4360 C.3   173  CYS173      0.1843
     65  C         32.5140   15.1430   19.7790 C.2   173  CYS173      0.2625
     66  O         31.7620   15.7840   20.5190 O.2   173  CYS173     -0.2714
     67  CB        34.4680   15.6900   18.2580 C.3   173  CYS173      0.0997
     68  SG        35.2490   14.1430   17.6810 S.3   173  CYS173     -0.0797
     69  N         32.9820   13.9360   20.0860 N.am  174  GLN174     -0.1963
     70  CA        32.5960   13.2460   21.3070 C.3   174  GLN174      0.1733
     71  C         32.9400   14.0610   22.5040 C.2   174  GLN174      0.2616
     72  O         34.0710   14.5330   22.6470 O.2   174  GLN174     -0.2715
     73  CB        33.4020   11.9570   21.4740 C.3   174  GLN174      0.0408
     74  CG        33.3170   10.9830   20.3370 C.3   174  GLN174      0.0908
     75  CD        31.8750   10.6200   20.2080 C.2   174  GLN174      0.2608
     76  OE1       31.3040   10.6740   19.1120 O.2   174  GLN174     -0.2717
     77  NE2       31.2490   10.2730   21.3280 N.am  174  GLN174     -0.0878
     78  N         31.9680   14.2260   23.3910 N.am  175  GLY175     -0.1955
     79  CA        32.1920   14.9990   24.5960 C.3   175  GLY175      0.1869
     80  C         31.5760   16.3800   24.5150 C.2   175  GLY175      0.2309
     81  O         31.5370   17.1120   25.5110 O.2   175  GLY175     -0.2863
     82  N         28.4990   16.8290   23.2790 N.3   177  SER177     -0.1217
     83  CA        27.0570   16.6010   23.3040 C.3   177  SER177      0.1889
     84  C         26.3780   17.3740   24.3800 C.2   177  SER177      0.2288
     85  O         26.9270   17.5740   25.4580 O.2   177  SER177     -0.2866
     86  CB        26.7570   15.1240   23.5540 C.3   177  SER177      0.2089
     87  OG        26.9100   14.4840   22.2990 O.3   177  SER177     -0.2183
     88  N         24.2090   20.4070   20.6460 N.3   191  VAL191     -0.1231
     89  CA        25.0650   19.4000   20.0270 C.3   191  VAL191      0.1692
     90  C         24.4800   18.0070   20.2320 C.2   191  VAL191      0.2593
     91  O         24.2320   17.6020   21.3700 O.2   191  VAL191     -0.2718
     92  CB        26.4910   19.4500   20.6050 C.3   191  VAL191      0.0266
     93  CG1       27.4290   18.4630   19.8900 C.3   191  VAL191      0.0020
     94  CG2       27.0500   20.8710   20.5430 C.3   191  VAL191      0.0020
     95  N         24.2530   17.2840   19.1420 N.am  192  SER192     -0.1938
     96  CA        23.5160   16.0240   19.2060 C.3   192  SER192      0.2055
     97  C         24.3080   14.8100   18.7070 C.2   192  SER192      0.2643
     98  O         24.6210   13.9050   19.4840 O.2   192  SER192     -0.2714
     99  CB        22.1310   16.1780   18.5720 C.3   192  SER192      0.2130
    100  OG        21.3560   14.9970   18.7250 O.3   192  SER192     -0.2179
    101  N         24.6010   14.7660   17.4130 N.am  193  TRP193     -0.1959
    102  CA        25.2480   13.5940   16.8450 C.3   193  TRP193      0.1771
    103  C         25.9930   13.9190   15.6020 C.2   193  TRP193      0.2620
    104  O         25.9790   15.0590   15.1350 O.2   193  TRP193     -0.2715
    105  CB        24.2370   12.4600   16.6480 C.3   193  TRP193      0.0590
    106  CG        23.1730   12.7510   15.6310 C.ar  193  TRP193      0.0006
    107  CD1       21.9650   13.3520   15.8560 C.ar  193  TRP193      0.0946
    108  CD2       23.1620   12.3280   14.2610 C.ar  193  TRP193      0.0152
    109  NE1       21.1920   13.3040   14.7180 N.ar  193  TRP193     -0.2442
    110  CE2       21.8980   12.6800   13.7250 C.ar  193  TRP193      0.0810
    111  CE3       24.0900   11.6690   13.4360 C.ar  193  TRP193      0.0012
    112  CZ2       21.5380   12.3930   12.4050 C.ar  193  TRP193      0.0191
    113  CZ3       23.7310   11.3860   12.1270 C.ar  193  TRP193      0.0001
    114  CH2       22.4630   11.7480   11.6240 C.ar  193  TRP193      0.0015
    115  N         26.7170   12.9350   15.0840 N.am  194  GLY194     -0.1940
    116  CA        27.4290   13.1140   13.8360 C.3   194  GLY194      0.2014
    117  C         28.0090   11.7910   13.3870 C.2   194  GLY194      0.2640
    118  O         28.0780   10.8380   14.1620 O.2   194  GLY194     -0.2714
    119  N         28.4120   11.7180   12.1270 N.am  195  SER195     -0.1935
    120  CA        29.0410   10.5170   11.6060 C.3   195  SER195      0.2055
    121  C         30.5250   10.6960   11.6790 C.2   195  SER195      0.2644
    122  O         31.1350   11.2320   10.7490 O.2   195  SER195     -0.2714
    123  CB        28.5980   10.2910   10.1620 C.3   195  SER195      0.2130
    124  OG        28.8480    8.9620    9.7580 O.3   195  SER195     -0.2179
    125  N         31.1220   10.3110   12.8040 N.am  196  GLY196     -0.1939
    126  CA        32.5080   10.6760   13.0430 C.3   196  GLY196      0.2014
    127  C         32.6000   12.1850   13.2070 C.2   196  GLY196      0.2639
    128  O         31.5720   12.8690   13.2600 O.2   196  GLY196     -0.2714
    129  N         33.8140   12.7180   13.2640 N.am  197  CYS197     -0.1967
    130  CA        33.9990   14.1520   13.4490 C.3   197  CYS197      0.1712
    131  C         34.8060   14.7560   12.3360 C.2   197  CYS197      0.2296
    132  O         35.8780   14.2710   11.9790 O.2   197  CYS197     -0.2864
    133  CB        34.7510   14.4360   14.7510 C.3   197  CYS197      0.0983
    134  SG        34.1180   13.4890   16.1490 S.3   197  CYS197     -0.0798
    135  N         28.2060   18.0940   11.7010 N.3   204  GLY204     -0.1225
    136  CA        27.5270   17.7590   12.9380 C.3   204  GLY204      0.1811
    137  C         26.0500   18.0800   12.8250 C.2   204  GLY204      0.2280
    138  O         25.6680   18.9940   12.0880 O.2   204  GLY204     -0.2866
@<TRIPOS>BOND
     1    48    46   am
     2    40    41    1
     3    46    45    1
     4    46    47    2
     5    45    44    1
     6    41    44    1
     7    41    42    1
     8    42    43    2
     9   124   123    1
    10   123   120    1
    11   122   121    2
    12   120   121    1
    13   120   119    1
    14   114   113   ar
    15   114   112   ar
    16   121   125   am
    17   135   136    1
    18   132   131    2
    19    56    54   ar
    20   138   137    2
    21   119   117   am
    22   113   111   ar
    23   131   130    1
    24   112   110   ar
    25    54    53    1
    26    54    55   ar
    27   125   126    1
    28   137   136    1
    29   126   127    1
    30    53    50    1
    31   127   128    2
    32   127   129   am
    33   129   130    1
    34    49    50    1
    35   117   116    1
    36   117   118    2
    37   111   108   ar
    38   130   133    1
    39    50    51    1
    40   110   108   ar
    41   110   109   ar
    42   116   115    1
    43   108   106   ar
    44    31    29    1
    45   109   107   ar
    46   133   134    1
    47   115   103   am
    48   104   103    2
    49    29    26    1
    50    29    30    1
    51    51    57   am
    52    51    52    2
    53    28    27    2
    54   103   102    1
    55   106   107   ar
    56   106   105    1
    57    57    58    1
    58    26    27    1
    59    26    25    1
    60    60    59    2
    61   134    68    1
    62    27    32   am
    63    20    19    2
    64   105   102    1
    65    62    61    1
    66   102   101    1
    67    25    19   am
    68    58    59    1
    69    58    61    1
    70    59    63   am
    71    19    18    1
    72   101    97   am
    73    32    33    1
    74    68    67    1
    75    21    18    1
    76    21    22    1
    77    36    33    1
    78    36    37    1
    79    34    35    2
    80    34    33    1
    81    18    17    1
    82    67    64    1
    83    63    64    1
    84    64    65    1
    85    38    37    1
    86    22    24   am
    87    22    23    2
    88    99   100    1
    89    99    96    1
    90    37    39    1
    91    97    96    1
    92    97    98    2
    93    76    75    2
    94    95    96    1
    95    95    90   am
    96    17    13   am
    97    65    69   am
    98    65    66    2
    99    93    92    1
   100    89    90    1
   101    89    92    1
   102    89    88    1
   103    69    70    1
   104    14    13    2
   105    75    74    1
   106    75    77   am
   107    90    91    2
   108    13    12    1
   109    74    73    1
   110    94    92    1
   111    70    73    1
   112    70    71    1
   113    11    12    1
   114    12    15    1
   115    87    86    1
   116     9     7   ar
   117     9    10   ar
   118    71    72    2
   119    71    78   am
   120     7     6   ar
   121    16    15    1
   122    10     8   ar
   123    82    83    1
   124    83    86    1
   125    83    84    1
   126    78    79    1
   127     6     8   ar
   128     6     5    1
   129     5     2    1
   130    84    85    2
   131    80    79    1
   132    80    81    2
   133     1     2    1
   134     2     3    1
   135     3     4    2
