@<TRIPOS>MOLECULE
tmp/1aurB00.pdb
 129 122 0 0 0
SMALL
GASTEIGER

@<TRIPOS>ATOM
      1  N         50.7300   41.8010   50.8650 N.3    22  GLY22      -0.1210
      2  CA        50.8430   41.0650   52.1130 C.3    22  GLY22       0.1956
      3  C         52.1790   40.3630   52.3290 C.2    22  GLY22       0.2611
      4  O         53.0550   40.3830   51.4530 O.2    22  GLY22      -0.2717
      5  N         52.3260   39.7220   53.4870 N.am   23  LEU23      -0.1979
      6  CA        53.5100   38.9170   53.8010 C.3    23  LEU23       0.1596
      7  C         53.8480   37.8820   52.7380 C.2    23  LEU23       0.2287
      8  O         52.9720   37.1610   52.2810 O.2    23  LEU23      -0.2864
      9  CB        53.3390   38.1990   55.1330 C.3    23  LEU23       0.0297
     10  CG        54.5200   37.3570   55.5900 C.3    23  LEU23       0.0022
     11  CD1       55.7370   38.2170   55.7000 C.3    23  LEU23       0.0001
     12  CD2       54.2230   36.7490   56.9210 C.3    23  LEU23       0.0001
     13  N         58.4050   33.5770   62.4810 N.3    58  ILE58      -0.1245
     14  CA        57.3810   32.5310   62.4630 C.3    58  ILE58       0.1561
     15  C         57.3860   31.6620   61.1990 C.2    58  ILE58       0.2260
     16  O         56.5570   30.7370   61.0650 O.2    58  ILE58      -0.2867
     17  CB        55.9490   33.1060   62.5980 C.3    58  ILE58       0.0252
     18  CG1       55.6180   34.0340   61.4320 C.3    58  ILE58       0.0019
     19  CG2       55.7840   33.8160   63.9040 C.3    58  ILE58       0.0019
     20  CD1       54.2000   33.8500   60.9130 C.3    58  ILE58       0.0001
     21  N         57.3030   43.7520   58.4010 N.3    68  TYR68      -0.1241
     22  CA        57.8320   43.6850   59.7730 C.3    68  TYR68       0.1605
     23  C         57.7790   42.2470   60.2980 C.2    68  TYR68       0.2264
     24  O         56.9900   41.4050   59.8250 O.2    68  TYR68      -0.2867
     25  CB        57.0590   44.5840   60.7450 C.3    68  TYR68       0.0534
     26  CG        55.5620   44.2950   60.8140 C.ar   68  TYR68      -0.0201
     27  CD1       55.0510   43.3100   61.6540 C.ar   68  TYR68      -0.0009
     28  CD2       54.6800   44.9150   59.9250 C.ar   68  TYR68      -0.0009
     29  CE1       53.7120   42.9490   61.5860 C.ar   68  TYR68       0.0417
     30  CE2       53.3550   44.5530   59.8500 C.ar   68  TYR68       0.0417
     31  CZ        52.8780   43.5720   60.6720 C.ar   68  TYR68       0.1957
     32  OH        51.5850   43.1730   60.4910 O.3    68  TYR68      -0.2866
     33  N         57.0100   38.9430   62.2900 N.3    70  ILE70      -0.1245
     34  CA        55.9790   38.3030   63.0910 C.3    70  ILE70       0.1561
     35  C         56.6630   37.2330   63.9410 C.2    70  ILE70       0.2260
     36  O         57.1990   36.2740   63.4020 O.2    70  ILE70      -0.2867
     37  CB        54.8910   37.6630   62.1660 C.3    70  ILE70       0.0252
     38  CG1       54.0600   38.7640   61.4990 C.3    70  ILE70       0.0019
     39  CG2       53.9640   36.7970   62.9730 C.3    70  ILE70       0.0019
     40  CD1       53.6240   38.4820   60.0910 C.3    70  ILE70       0.0001
     41  N         52.3040   33.9120   67.2740 N.3    73  MET73      -0.1245
     42  CA        50.9150   34.0050   66.8430 C.3    73  MET73       0.1570
     43  C         49.8990   33.9040   67.9920 C.2    73  MET73       0.2261
     44  O         48.8780   34.6150   67.9820 O.2    73  MET73      -0.2867
     45  CB        50.6690   32.9440   65.7640 C.3    73  MET73       0.0387
     46  CG        51.4180   33.2840   64.4880 C.3    73  MET73       0.0595
     47  SD        51.3160   32.0010   63.2710 S.3    73  MET73      -0.1393
     48  CE        53.0930   31.5410   63.1690 C.3    73  MET73       0.0692
     49  N         50.4140   37.6660   70.5190 N.3    77  ARG77      -0.1245
     50  CA        51.1190   37.9010   69.2880 C.3    77  ARG77       0.1563
     51  C         52.2940   38.8030   69.5650 C.2    77  ARG77       0.2260
     52  O         52.2190   39.6820   70.4080 O.2    77  ARG77      -0.2867
     53  CB        50.1990   38.5830   68.3160 C.3    77  ARG77       0.0307
     54  CG        48.9390   37.8450   68.0620 C.3    77  ARG77       0.0489
     55  CD        48.2040   38.5150   66.9350 C.3    77  ARG77       0.2205
     56  NE        47.6570   39.7760   67.4000 N.pl3  77  ARG77      -0.0865
     57  CZ        46.5380   39.8690   68.1150 C.cat  77  ARG77       0.5346
     58  NH1       45.7130   38.8210   68.1730 N.pl3  77  ARG77       0.1354
     59  NH2       46.2100   41.0290   68.7000 N.pl3  77  ARG77       0.1354
     60  N         46.8350   45.1540   52.0290 N.3   113  PHE113     -0.1227
     61  CA        46.3760   43.8010   52.2620 C.3   113  PHE113      0.1736
     62  C         47.1950   43.1910   53.3770 C.2   113  PHE113      0.2596
     63  O         48.4230   43.2430   53.3710 O.2   113  PHE113     -0.2718
     64  CB        46.5040   42.9410   51.0130 C.3   113  PHE113      0.0547
     65  CG        45.9400   41.5460   51.1720 C.ar  113  PHE113     -0.0202
     66  CD1       44.5690   41.3130   51.0910 C.ar  113  PHE113     -0.0042
     67  CD2       46.7830   40.4570   51.3390 C.ar  113  PHE113     -0.0042
     68  CE1       44.0570   40.0210   51.1600 C.ar  113  PHE113     -0.0003
     69  CE2       46.2740   39.1660   51.4070 C.ar  113  PHE113     -0.0003
     70  CZ        44.9150   38.9520   51.3150 C.ar  113  PHE113     -0.0000
     71  N         46.4950   42.6450   54.3620 N.am  114  SER114     -0.1938
     72  CA        47.1140   41.9570   55.4700 C.3   114  SER114      0.2055
     73  C         48.1720   42.7920   56.1510 C.2   114  SER114      0.2642
     74  O         47.8560   43.7590   56.8530 O.2   114  SER114     -0.2714
     75  CB        47.7110   40.6410   55.0060 C.3   114  SER114      0.2130
     76  OG        47.9370   39.9390   56.2250 O.3   114  SER114     -0.2179
     77  N         49.4240   42.3700   55.9920 N.am  115  GLN115     -0.1976
     78  CA        50.5480   42.9100   56.7520 C.3   115  GLN115      0.1601
     79  C         50.7170   44.3590   56.2660 C.2   115  GLN115      0.2287
     80  O         51.0180   45.2690   57.0550 O.2   115  GLN115     -0.2864
     81  CB        51.8010   42.0580   56.4630 C.3   115  GLN115      0.0394
     82  CG        53.0530   42.4330   57.2450 C.3   115  GLN115      0.0908
     83  CD        54.3000   41.6050   56.8570 C.2   115  GLN115      0.2608
     84  OE1       54.5410   41.3730   55.6750 O.2   115  GLN115     -0.2717
     85  NE2       55.1360   41.2510   57.8480 N.am  115  GLN115     -0.0878
     86  N         44.3770   44.3630   60.3680 N.3   141  TYR141     -0.1241
     87  CA        44.0680   44.8820   61.6900 C.3   141  TYR141      0.1605
     88  C         45.1610   45.8620   62.0590 C.2   141  TYR141      0.2264
     89  O         45.9490   46.2450   61.2090 O.2   141  TYR141     -0.2867
     90  CB        43.9620   43.7370   62.7220 C.3   141  TYR141      0.0534
     91  CG        45.2710   43.0900   63.1270 C.ar  141  TYR141     -0.0201
     92  CD1       46.1910   42.6620   62.1680 C.ar  141  TYR141     -0.0009
     93  CD2       45.6580   43.0720   64.4550 C.ar  141  TYR141     -0.0009
     94  CE1       47.4650   42.2750   62.5160 C.ar  141  TYR141      0.0417
     95  CE2       46.9390   42.6620   64.8210 C.ar  141  TYR141      0.0417
     96  CZ        47.8410   42.2820   63.8430 C.ar  141  TYR141      0.1957
     97  OH        49.1460   42.0320   64.2060 O.3   141  TYR141     -0.2866
     98  N         43.5720   33.5660   59.2270 N.3   170  VAL170     -0.1231
     99  CA        44.8930   34.1380   59.3580 C.3   170  VAL170      0.1692
    100  C         44.7670   35.4340   60.1510 C.2   170  VAL170      0.2591
    101  O         45.3850   35.5660   61.1870 O.2   170  VAL170     -0.2718
    102  CB        45.5000   34.3870   57.9630 C.3   170  VAL170      0.0266
    103  CG1       46.6690   35.3720   58.0380 C.3   170  VAL170      0.0020
    104  CG2       45.9170   33.0570   57.3450 C.3   170  VAL170      0.0020
    105  N         43.9560   36.3860   59.6940 N.am  171  VAL171     -0.1980
    106  CA        43.6660   37.5370   60.5260 C.3   171  VAL171      0.1595
    107  C         42.1880   37.5260   60.8860 C.2   171  VAL171      0.2287
    108  O         41.3230   37.7570   60.0530 O.2   171  VAL171     -0.2864
    109  CB        44.1180   38.9140   59.8690 C.3   171  VAL171      0.0276
    110  CG1       45.6080   38.8610   59.4560 C.3   171  VAL171      0.0022
    111  CG2       43.2480   39.2380   58.6830 C.3   171  VAL171      0.0022
    112  N         39.7690   40.6610   64.6830 N.3   175  MET175     -0.1245
    113  CA        40.9130   41.5820   64.6240 C.3   175  MET175      0.1570
    114  C         40.7140   42.7110   63.6010 C.2   175  MET175      0.2261
    115  O         41.0180   43.8710   63.8760 O.2   175  MET175     -0.2867
    116  CB        42.2030   40.8120   64.3090 C.3   175  MET175      0.0387
    117  CG        42.5950   39.8580   65.4130 C.3   175  MET175      0.0595
    118  SD        43.5890   38.4470   64.8390 S.3   175  MET175     -0.1393
    119  CE        45.2020   39.1640   64.7610 C.3   175  MET175      0.0692
    120  N         41.2350   34.3490   53.5310 N.3   199  HIS199     -0.1241
    121  CA        42.2960   35.3430   53.3840 C.3   199  HIS199      0.1621
    122  C         42.6450   35.5030   51.9150 C.2   199  HIS199      0.2264
    123  O         43.5560   34.8710   51.3940 O.2   199  HIS199     -0.2867
    124  CB        43.5600   34.9610   54.1680 C.3   199  HIS199      0.0745
    125  CG        44.4400   36.1390   54.5030 C.ar  199  HIS199      0.0817
    126  ND1       44.0110   37.1900   55.2960 N.ar  199  HIS199     -0.2268
    127  CD2       45.7400   36.3970   54.2090 C.ar  199  HIS199      0.1154
    128  CE1       45.0180   38.0270   55.4910 C.ar  199  HIS199      0.1986
    129  NE2       46.0760   37.5710   54.8390 N.ar  199  HIS199     -0.2212
@<TRIPOS>BOND
     1     1     2    1
     2    64    65    1
     3    64    61    1
     4    66    68   ar
     5    66    65   ar
     6    68    70   ar
     7    65    67   ar
     8    70    69   ar
     9    67    69   ar
    10   123   122    2
    11     4     3    2
    12   122   121    1
    13    60    61    1
    14     2     3    1
    15    61    62    1
    16     8     7    2
    17     3     5   am
    18     7     6    1
    19    63    62    2
    20    62    71   am
    21   121   120    1
    22   121   124    1
    23     5     6    1
    24     6     9    1
    25   124   125    1
    26   127   125   ar
    27   127   129   ar
    28    71    72    1
    29   125   126   ar
    30   129   128   ar
    31    75    72    1
    32    75    76    1
    33     9    10    1
    34   126   128   ar
    35    72    73    1
    36    10    11    1
    37    10    12    1
    38    84    83    2
    39    77    73   am
    40    77    78    1
    41    73    74    2
    42    79    78    1
    43    79    80    2
    44    81    78    1
    45    81    82    1
    46    83    82    1
    47    83    85   am
    48   104   102    1
    49   102   103    1
    50   102    99    1
    51    21    22    1
    52   111   109    1
    53    98    99    1
    54    99   100    1
    55   110   109    1
    56   105   100   am
    57   105   106    1
    58    22    23    1
    59    22    25    1
    60    24    23    2
    61    30    28   ar
    62    30    31   ar
    63   109   106    1
    64    28    26   ar
    65   108   107    2
    66    40    38    1
    67   100   101    2
    68    86    87    1
    69    32    31    1
    70   106   107    1
    71    31    29   ar
    72    25    26    1
    73    26    27   ar
    74    20    18    1
    75    16    15    2
    76    15    14    1
    77    89    88    2
    78    18    17    1
    79    38    37    1
    80    29    27   ar
    81    87    88    1
    82    87    90    1
    83    37    39    1
    84    37    34    1
    85    92    94   ar
    86    92    91   ar
    87    33    34    1
    88    14    13    1
    89    14    17    1
    90    94    96   ar
    91    17    19    1
    92    90    91    1
    93    34    35    1
    94    91    93   ar
    95    48    47    1
    96    47    46    1
    97    36    35    2
    98   114   115    2
    99   114   113    1
   100    96    97    1
   101    96    95   ar
   102   116   113    1
   103   116   117    1
   104    93    95   ar
   105    46    45    1
   106   113   112    1
   107   119   118    1
   108   118   117    1
   109    45    42    1
   110    42    41    1
   111    42    43    1
   112    55    56    1
   113    55    54    1
   114    56    57    2
   115    44    43    2
   116    54    53    1
   117    57    58    1
   118    57    59    1
   119    53    50    1
   120    50    51    1
   121    50    49    1
   122    51    52    2
