@<TRIPOS>MOLECULE
tmp/1av5B00.pdb
 171 167 0 0 0
SMALL
GASTEIGER

@<TRIPOS>ATOM
      1  N         35.0410   25.4190   55.3280 N.3     5  ILE5       -0.1231
      2  CA        35.8230   25.5810   56.5520 C.3     5  ILE5        0.1692
      3  C         35.1900   26.7060   57.3650 C.2     5  ILE5        0.2592
      4  O         35.1100   26.6510   58.6080 O.2     5  ILE5       -0.2718
      5  CB        37.2550   26.0740   56.2610 C.3     5  ILE5        0.0266
      6  CG1       37.8500   25.3950   55.0250 C.3     5  ILE5        0.0019
      7  CG2       38.1220   25.8140   57.4680 C.3     5  ILE5        0.0020
      8  CD1       39.2080   25.9990   54.5800 C.3     5  ILE5        0.0001
      9  N         34.7120   27.7090   56.6320 N.am    6  PHE6       -0.1976
     10  CA        34.1120   28.8930   57.2240 C.3     6  PHE6        0.1639
     11  C         32.7080   28.6660   57.7430 C.2     6  PHE6        0.2290
     12  O         32.2000   29.4580   58.5290 O.2     6  PHE6       -0.2864
     13  CB        34.2030   30.0590   56.2380 C.3     6  PHE6        0.0560
     14  CG        35.6330   30.4230   55.8710 C.ar    6  PHE6       -0.0200
     15  CD1       36.6730   29.5010   56.0410 C.ar    6  PHE6       -0.0042
     16  CD2       35.9430   31.6710   55.3640 C.ar    6  PHE6       -0.0042
     17  CE1       37.9750   29.8170   55.7160 C.ar    6  PHE6       -0.0003
     18  CE2       37.2580   31.9820   55.0400 C.ar    6  PHE6       -0.0003
     19  CZ        38.2660   31.0510   55.2190 C.ar    6  PHE6       -0.0000
     20  N         33.5480   27.1320   61.1410 N.3     9  ILE9       -0.1245
     21  CA        33.9370   28.1910   62.0830 C.3     9  ILE9        0.1561
     22  C         32.6860   28.9860   62.5620 C.2     9  ILE9        0.2260
     23  O         32.6170   29.4070   63.7250 O.2     9  ILE9       -0.2867
     24  CB        34.9710   29.1930   61.4420 C.3     9  ILE9        0.0252
     25  CG1       36.3680   28.5430   61.2550 C.3     9  ILE9        0.0019
     26  CG2       34.9790   30.5100   62.2150 C.3     9  ILE9        0.0019
     27  CD1       37.1880   28.2000   62.5470 C.3     9  ILE9        0.0001
     28  N         35.5230   24.2140   64.8620 N.3    14  ILE14      -0.1231
     29  CA        36.9360   24.4930   65.0130 C.3    14  ILE14       0.1678
     30  C         36.9960   25.9110   65.5570 C.2    14  ILE14       0.2434
     31  O         36.2590   26.7850   65.0650 O.2    14  ILE14      -0.2733
     32  CB        37.6580   24.6090   63.6570 C.3    14  ILE14       0.0265
     33  CG1       36.8850   23.9260   62.5360 C.3    14  ILE14       0.0019
     34  CG2       39.0770   24.0860   63.7880 C.3    14  ILE14       0.0020
     35  CD1       37.3140   24.4270   61.1590 C.3    14  ILE14       0.0001
     36  N         37.9270   26.1950   66.5020 N.am   15  PRO15      -0.2718
     37  CA        37.9900   27.5660   67.0230 C.3    15  PRO15       0.1535
     38  C         38.6240   28.5690   66.0380 C.2    15  PRO15       0.2598
     39  O         38.9760   28.2410   64.8880 O.2    15  PRO15      -0.2715
     40  CB        38.7990   27.4100   68.3290 C.3    15  PRO15       0.0310
     41  CG        39.7250   26.3070   68.0290 C.3    15  PRO15       0.0237
     42  CD        38.8780   25.3180   67.2150 C.3    15  PRO15       0.0939
     43  N         38.7480   29.8040   66.4980 N.am   16  ALA16      -0.1978
     44  CA        39.3260   30.8750   65.7070 C.3    16  ALA16       0.1597
     45  C         39.5580   31.9980   66.7070 C.2    16  ALA16       0.2287
     46  O         38.8090   32.1160   67.6800 O.2    16  ALA16      -0.2864
     47  CB        38.3360   31.3080   64.6300 C.3    16  ALA16       0.0319
     48  N         37.8900   37.0310   62.2140 N.3    28  PHE28      -0.1227
     49  CA        38.8800   36.1700   62.8420 C.3    28  PHE28       0.1736
     50  C         40.2140   36.2960   62.1400 C.2    28  PHE28       0.2595
     51  O         40.2460   36.5650   60.9410 O.2    28  PHE28      -0.2718
     52  CB        38.4140   34.6910   62.8350 C.3    28  PHE28       0.0547
     53  CG        38.1100   34.1090   61.4430 C.ar   28  PHE28      -0.0202
     54  CD1       36.9110   34.4490   60.7550 C.ar   28  PHE28      -0.0042
     55  CD2       38.9820   33.1620   60.8470 C.ar   28  PHE28      -0.0042
     56  CE1       36.5880   33.8520   59.4960 C.ar   28  PHE28      -0.0003
     57  CE2       38.6670   32.5610   59.5880 C.ar   28  PHE28      -0.0003
     58  CZ        37.4660   32.9080   58.9160 C.ar   28  PHE28      -0.0000
     59  N         41.3070   36.0560   62.8730 N.am   29  HIS29      -0.1961
     60  CA        42.6670   36.1300   62.3120 C.3    29  HIS29       0.1787
     61  C         42.8830   35.0380   61.2800 C.2    29  HIS29       0.2620
     62  O         42.3440   33.9300   61.3540 O.2    29  HIS29      -0.2715
     63  CB        43.7740   35.9890   63.3730 C.3    29  HIS29       0.0785
     64  CG        43.8540   37.1310   64.3280 C.ar   29  HIS29       0.0821
     65  ND1       44.1360   38.4160   63.9270 N.ar   29  HIS29      -0.2267
     66  CD2       43.6160   37.1930   65.6560 C.ar   29  HIS29       0.1154
     67  CE1       44.0460   39.2280   64.9620 C.ar   29  HIS29       0.1986
     68  NE2       43.7330   38.5120   66.0240 N.ar   29  HIS29      -0.2212
     69  N         43.7250   35.3450   60.3250 N.am   30  ASP30      -0.1957
     70  CA        44.0210   34.3770   59.3000 C.3    30  ASP30       0.1840
     71  C         45.1680   33.4910   59.7490 C.2    30  ASP30       0.2622
     72  O         46.2160   34.0030   60.1860 O.2    30  ASP30      -0.2715
     73  CB        44.4410   35.0880   58.0190 C.3    30  ASP30       0.1450
     74  CG        44.2850   34.2100   56.8170 C.2    30  ASP30       0.3671
     75  OD1       45.1550   33.3290   56.5780 O.co2  30  ASP30      -0.2456
     76  OD2       43.2470   34.3900   56.1500 O.co2  30  ASP30      -0.2456
     77  N         44.9890   32.1870   59.5500 N.am   31  ILE31      -0.1963
     78  CA        45.9890   31.1840   59.8950 C.3    31  ILE31       0.1727
     79  C         47.1920   31.1380   58.9380 C.2    31  ILE31       0.2616
     80  O         48.1480   30.3830   59.1950 O.2    31  ILE31      -0.2715
     81  CB        45.4010   29.7480   59.9640 C.3    31  ILE31       0.0290
     82  CG1       44.8980   29.2950   58.5890 C.3    31  ILE31       0.0022
     83  CG2       44.3190   29.6760   61.0140 C.3    31  ILE31       0.0023
     84  CD1       44.5580   27.8040   58.5350 C.3    31  ILE31       0.0001
     85  N         47.1090   31.8800   57.8260 N.am   32  SER32      -0.1950
     86  CA        48.1760   31.9640   56.8280 C.3    32  SER32       0.1924
     87  C         48.2700   33.4190   56.4860 C.2    32  SER32       0.2314
     88  O         47.9060   33.8890   55.4100 O.2    32  SER32      -0.2863
     89  CB        47.8640   31.1190   55.6300 C.3    32  SER32       0.2116
     90  OG        48.0120   29.7660   56.0030 O.3    32  SER32      -0.2180
     91  N         49.4530   37.0670   55.5830 N.3    34  GLN34      -0.1245
     92  CA        50.2760   37.5830   54.4960 C.3    34  GLN34       0.1566
     93  C         50.9430   38.9090   54.7990 C.2    34  GLN34       0.2260
     94  O         51.6650   39.4410   53.9640 O.2    34  GLN34      -0.2867
     95  CB        49.4530   37.6860   53.2260 C.3    34  GLN34       0.0367
     96  CG        48.8760   36.3540   52.8040 C.3    34  GLN34       0.0905
     97  CD        49.9380   35.2870   52.6600 C.2    34  GLN34       0.2608
     98  OE1       50.9690   35.5060   52.0300 O.2    34  GLN34      -0.2717
     99  NE2       49.6820   34.1200   53.2200 N.am   34  GLN34      -0.0878
    100  N         46.8340   40.2950   59.5480 N.3    38  HIS38      -0.1241
    101  CA        46.0350   39.8210   58.4590 C.3    38  HIS38       0.1621
    102  C         44.8320   39.0230   59.0180 C.2    38  HIS38       0.2264
    103  O         45.0010   37.9080   59.5560 O.2    38  HIS38      -0.2867
    104  CB        46.9000   38.9970   57.5190 C.3    38  HIS38       0.0745
    105  CG        46.1260   38.2880   56.4640 C.ar   38  HIS38       0.0817
    106  ND1       46.6750   37.3080   55.6630 N.ar   38  HIS38      -0.2268
    107  CD2       44.8240   38.3830   56.1010 C.ar   38  HIS38       0.1154
    108  CE1       45.7450   36.8310   54.8530 C.ar   38  HIS38       0.1986
    109  NE2       44.6160   37.4700   55.1020 N.ar   38  HIS38      -0.2212
    110  N         40.2620   38.1090   58.4380 N.3    40  LEU40      -0.1245
    111  CA        39.1650   37.9180   57.4870 C.3    40  LEU40       0.1561
    112  C         37.8270   38.2610   58.1190 C.2    40  LEU40       0.2260
    113  O         37.6460   38.1120   59.3200 O.2    40  LEU40      -0.2867
    114  CB        39.0750   36.4490   57.0920 C.3    40  LEU40       0.0270
    115  CG        40.1640   35.8010   56.2690 C.3    40  LEU40       0.0019
    116  CD1       40.2110   34.3310   56.5810 C.3    40  LEU40       0.0001
    117  CD2       39.8500   35.9670   54.8440 C.3    40  LEU40       0.0001
    118  N         38.3800   38.1600   47.0240 N.3    86  ASN86      -0.1240
    119  CA        38.8140   37.2940   45.9200 C.3    86  ASN86       0.1653
    120  C         37.6450   36.7020   45.1260 C.2    86  ASN86       0.2266
    121  O         36.7020   36.2400   45.7220 O.2    86  ASN86      -0.2867
    122  CB        39.7530   36.1930   46.4810 C.3    86  ASN86       0.1155
    123  CG        41.2110   36.7160   46.6900 C.2    86  ASN86       0.2627
    124  OD1       41.6090   37.6910   46.0610 O.2    86  ASN86      -0.2716
    125  ND2       41.9670   36.1020   47.5800 N.am   86  ASN86      -0.0877
    126  N         41.8290   33.8730   42.6120 N.3    92  GLY92      -0.1210
    127  CA        42.5600   33.1250   43.6120 C.3    92  GLY92       0.1956
    128  C         41.6590   32.7250   44.7770 C.2    92  GLY92       0.2612
    129  O         41.9860   32.9030   45.9720 O.2    92  GLY92      -0.2717
    130  N         40.4900   32.2000   44.4510 N.am   93  GLN93      -0.1965
    131  CA        39.6120   31.7890   45.5080 C.3    93  GLN93       0.1733
    132  C         39.6340   30.2870   45.5790 C.2    93  GLN93       0.2617
    133  O         39.6190   29.6080   44.5540 O.2    93  GLN93      -0.2715
    134  CB        38.1770   32.2940   45.2880 C.3    93  GLN93       0.0408
    135  CG        37.2650   32.0900   46.5200 C.3    93  GLN93       0.0908
    136  CD        35.8290   32.5820   46.2950 C.2    93  GLN93       0.2608
    137  OE1       35.4670   32.9560   45.1570 O.2    93  GLN93      -0.2717
    138  NE2       34.9980   32.5710   47.3650 N.am   93  GLN93      -0.0878
    139  N         39.8130   29.7930   46.8000 N.am   94  SER94      -0.1936
    140  CA        39.7790   28.3650   47.1060 C.3    94  SER94       0.2055
    141  C         38.6440   28.2290   48.1450 C.2    94  SER94       0.2642
    142  O         37.8450   27.2870   48.0870 O.2    94  SER94      -0.2714
    143  CB        41.1270   27.8710   47.6650 C.3    94  SER94       0.2130
    144  OG        41.6560   28.7590   48.6290 O.3    94  SER94      -0.2179
    145  N         38.5440   29.2080   49.0580 N.am   95  VAL95      -0.1977
    146  CA        37.4780   29.2080   50.0720 C.3    95  VAL95       0.1596
    147  C         36.1990   29.8580   49.5250 C.2    95  VAL95       0.2287
    148  O         36.0250   31.0840   49.5280 O.2    95  VAL95      -0.2864
    149  CB        37.8600   29.9010   51.4400 C.3    95  VAL95       0.0276
    150  CG1       36.7300   29.6600   52.4690 C.3    95  VAL95       0.0022
    151  CG2       39.1800   29.3590   52.0080 C.3    95  VAL95       0.0022
    152  N         34.2450   36.5000   51.7910 N.3    99  HIS99      -0.1241
    153  CA        35.1330   36.9430   52.8260 C.3    99  HIS99       0.1621
    154  C         36.0160   38.0800   52.4080 C.2    99  HIS99       0.2264
    155  O         36.6010   38.0890   51.3200 O.2    99  HIS99      -0.2867
    156  CB        35.9870   35.7790   53.3480 C.3    99  HIS99       0.0745
    157  CG        36.8900   35.1390   52.3270 C.ar   99  HIS99       0.0817
    158  ND1       36.6330   33.8940   51.7870 N.ar   99  HIS99      -0.2268
    159  CD2       38.1020   35.5040   51.8460 C.ar   99  HIS99       0.1154
    160  CE1       37.6480   33.5190   51.0340 C.ar   99  HIS99       0.1986
    161  NE2       38.5510   34.4780   51.0510 N.ar   99  HIS99      -0.2212
    162  N         39.2520   40.2420   53.1010 N.3   101  HIS101     -0.1241
    163  CA        40.6100   40.1120   53.6320 C.3   101  HIS101      0.1621
    164  C         41.0500   41.4740   54.1250 C.2   101  HIS101      0.2264
    165  O         40.7310   42.4600   53.4700 O.2   101  HIS101     -0.2867
    166  CB        41.5550   39.7360   52.5040 C.3   101  HIS101      0.0745
    167  CG        41.5570   38.2780   52.1320 C.ar  101  HIS101      0.0817
    168  ND1       42.1360   37.3100   52.9270 N.ar  101  HIS101     -0.2268
    169  CD2       41.2160   37.6500   50.9800 C.ar  101  HIS101      0.1154
    170  CE1       42.1610   36.1540   52.2820 C.ar  101  HIS101      0.1986
    171  NE2       41.6140   36.3360   51.0930 N.ar  101  HIS101     -0.2212
@<TRIPOS>BOND
     1   126   127    1
     2   127   128    1
     3   130   128   am
     4   130   131    1
     5   133   132    2
     6   128   129    2
     7   120   121    2
     8   120   119    1
     9   137   136    2
    10   134   131    1
    11   134   135    1
    12   131   132    1
    13   132   139   am
    14   119   122    1
    15   119   118    1
    16   124   123    2
    17   136   135    1
    18   136   138   am
    19   122   123    1
    20   123   125   am
    21   139   140    1
    22   140   143    1
    23   140   141    1
    24   143   144    1
    25   142   141    2
    26   141   145   am
    27   145   146    1
    28   147   148    2
    29   147   146    1
    30   146   149    1
    31   169   171   ar
    32   169   167   ar
    33   160   161   ar
    34   160   158   ar
    35   161   159   ar
    36   171   170   ar
    37   155   154    2
    38   149   151    1
    39   149   150    1
    40   158   157   ar
    41   152   153    1
    42   159   157   ar
    43    98    97    2
    44   167   166    1
    45   167   168   ar
    46   170   168   ar
    47   157   156    1
    48   154   153    1
    49   166   163    1
    50    97    96    1
    51    97    99   am
    52    96    95    1
    53   153   156    1
    54   162   163    1
    55    95    92    1
    56   165   164    2
    57   163   164    1
    58    94    93    2
    59    92    93    1
    60    92    91    1
    61     8     6    1
    62   117   115    1
    63   108   109   ar
    64   108   106   ar
    65     6     5    1
    66    18    19   ar
    67    18    16   ar
    68   109   107   ar
    69    19    17   ar
    70     1     2    1
    71    16    14   ar
    72    88    87    2
    73    89    90    1
    74    89    86    1
    75   106   105   ar
    76    17    15   ar
    77    14    15   ar
    78    14    13    1
    79   107   105   ar
    80    76    74   ar
    81    13    10    1
    82     5     2    1
    83     5     7    1
    84   115   116    1
    85   115   114    1
    86   105   104    1
    87    87    86    1
    88     2     3    1
    89    75    74   ar
    90     9    10    1
    91     9     3   am
    92    74    73    1
    93    86    85    1
    94   114   111    1
    95    10    11    1
    96     3     4    2
    97   111   112    1
    98   111   110    1
    99   104   101    1
   100    11    12    2
   101    85    79   am
   102    73    70    1
   103   112   113    2
   104   101   102    1
   105   101   100    1
   106    84    82    1
   107    82    81    1
   108    58    56   ar
   109    58    57   ar
   110    79    80    2
   111    79    78    1
   112   102   103    2
   113    70    71    1
   114    70    69    1
   115    56    54   ar
   116    77    71   am
   117    77    78    1
   118    57    55   ar
   119    71    72    2
   120    78    81    1
   121    81    83    1
   122    69    61   am
   123    54    53   ar
   124    55    53   ar
   125    51    50    2
   126    20    21    1
   127    35    33    1
   128    25    24    1
   129    25    27    1
   130    61    62    2
   131    61    60    1
   132    24    21    1
   133    24    26    1
   134    53    52    1
   135    21    22    1
   136    50    49    1
   137    50    59   am
   138    48    49    1
   139    60    59    1
   140    60    63    1
   141    33    32    1
   142    22    23    2
   143    52    49    1
   144    63    64    1
   145    32    34    1
   146    32    29    1
   147    65    64   ar
   148    65    67   ar
   149    64    66   ar
   150    47    44    1
   151    28    29    1
   152    39    38    2
   153    67    68   ar
   154    29    30    1
   155    31    30    2
   156    30    36   am
   157    66    68   ar
   158    44    43    1
   159    44    45    1
   160    38    43   am
   161    38    37    1
   162    36    37    1
   163    36    42    1
   164    45    46    2
   165    37    40    1
   166    42    41    1
   167    41    40    1
