@<TRIPOS>MOLECULE
tmp/1av6B00.pdb
 158 152 0 0 0
SMALL
GASTEIGER

@<TRIPOS>ATOM
      1  N         19.7610   54.9270   60.4730 N.3    20  TYR20      -0.1241
      2  CA        18.5350   55.4400   61.0690 C.3    20  TYR20       0.1605
      3  C         17.7660   56.4450   60.2070 C.2    20  TYR20       0.2264
      4  O         18.3410   57.3670   59.6380 O.2    20  TYR20      -0.2867
      5  CB        18.8410   56.0700   62.4370 C.3    20  TYR20       0.0534
      6  CG        17.6330   56.6060   63.1860 C.ar   20  TYR20      -0.0201
      7  CD1       16.6910   55.7400   63.7450 C.ar   20  TYR20      -0.0009
      8  CD2       17.4480   57.9750   63.3650 C.ar   20  TYR20      -0.0009
      9  CE1       15.6020   56.2200   64.4740 C.ar   20  TYR20       0.0417
     10  CE2       16.3600   58.4670   64.0910 C.ar   20  TYR20       0.0417
     11  CZ        15.4440   57.5810   64.6430 C.ar   20  TYR20       0.1957
     12  OH        14.3990   58.0450   65.4110 O.3    20  TYR20      -0.2866
     13  N         15.0750   59.1760   60.6380 N.3    22  PRO22      -0.2116
     14  CA        14.3710   59.9210   61.6910 C.3    22  PRO22       0.1372
     15  C         12.8410   59.9140   61.6250 C.2    22  PRO22       0.2244
     16  O         12.1780   60.0490   62.6530 O.2    22  PRO22      -0.2868
     17  CB        14.9800   61.3260   61.5950 C.3    22  PRO22       0.0268
     18  CG        15.6030   61.3850   60.2170 C.3    22  PRO22       0.0207
     19  CD        16.1310   59.9980   60.0260 C.3    22  PRO22       0.0892
     20  N         10.4130   57.7460   64.2010 N.3    25  ALA25      -0.1245
     21  CA         9.8070   58.2070   65.4400 C.3    25  ALA25       0.1562
     22  C          8.3470   58.6630   65.2820 C.2    25  ALA25       0.2260
     23  O          7.6210   58.8080   66.2650 O.2    25  ALA25      -0.2867
     24  CB        10.6550   59.3050   66.0400 C.3    25  ALA25       0.0290
     25  N         15.8540   55.7940   84.9820 N.3   138  ARG138     -0.1245
     26  CA        15.9100   56.6890   83.8390 C.3   138  ARG138      0.1563
     27  C         15.4230   58.0580   84.3020 C.2   138  ARG138      0.2260
     28  O         14.2760   58.2050   84.7380 O.2   138  ARG138     -0.2867
     29  CB        15.0290   56.1900   82.6980 C.3   138  ARG138      0.0307
     30  CG        15.0900   57.1050   81.4890 C.3   138  ARG138      0.0489
     31  CD        16.5300   57.2410   80.9760 C.3   138  ARG138      0.2205
     32  NE        16.9260   56.0610   80.2100 N.pl3 138  ARG138     -0.0865
     33  CZ        18.0010   55.3180   80.4420 C.cat 138  ARG138      0.5346
     34  NH1       18.8230   55.6250   81.4280 N.pl3 138  ARG138      0.1354
     35  NH2       18.2350   54.2460   79.6980 N.pl3 138  ARG138      0.1354
     36  N         14.4770   62.3630   77.7230 N.3   140  PRO140     -0.2116
     37  CA        15.7550   61.8780   78.2520 C.3   140  PRO140      0.1372
     38  C         16.9500   62.1510   77.3370 C.2   140  PRO140      0.2244
     39  O         16.9870   61.7060   76.1850 O.2   140  PRO140     -0.2868
     40  CB        15.5090   60.3710   78.4520 C.3   140  PRO140      0.0268
     41  CG        14.4780   60.0490   77.4320 C.3   140  PRO140      0.0207
     42  CD        13.5470   61.2430   77.5120 C.3   140  PRO140      0.0892
     43  N         19.7190   48.3550   82.6210 N.3   167  LYS167     -0.1245
     44  CA        19.0090   48.9800   81.5130 C.3   167  LYS167      0.1561
     45  C         20.1850   49.4600   80.6460 C.2   167  LYS167      0.2260
     46  O         21.1610   50.0370   81.1600 O.2   167  LYS167     -0.2867
     47  CB        18.2230   50.1690   82.0750 C.3   167  LYS167      0.0271
     48  CG        17.1400   50.7890   81.2050 C.3   167  LYS167      0.0035
     49  CD        16.2730   51.7400   82.0560 C.3   167  LYS167      0.0206
     50  CE        15.0950   52.3250   81.2870 C.3   167  LYS167      0.1093
     51  NZ        14.1200   51.2940   80.8610 N.3   167  LYS167     -0.1314
     52  N         20.7210   51.4470   77.0710 N.3   169  ARG169     -0.1245
     53  CA        20.2920   52.1490   75.8610 C.3   169  ARG169      0.1563
     54  C         21.3520   53.2010   75.5480 C.2   169  ARG169      0.2260
     55  O         21.3390   54.3020   76.1040 O.2   169  ARG169     -0.2867
     56  CB        18.9250   52.7980   76.0850 C.3   169  ARG169      0.0307
     57  CG        18.0530   52.8580   74.8410 C.3   169  ARG169      0.0489
     58  CD        18.3680   54.0650   73.9910 C.3   169  ARG169      0.2205
     59  NE        17.8040   55.3110   74.5080 N.pl3 169  ARG169     -0.0865
     60  CZ        18.3710   56.4990   74.3260 C.cat 169  ARG169      0.5346
     61  NH1       19.5150   56.5890   73.6480 N.pl3 169  ARG169      0.1354
     62  NH2       17.7910   57.5990   74.7930 N.pl3 169  ARG169      0.1354
     63  N         22.4120   58.2570   71.5170 N.3   172  PHE172     -0.1241
     64  CA        22.4020   58.3970   70.0590 C.3   172  PHE172      0.1605
     65  C         23.6320   59.2270   69.6910 C.2   172  PHE172      0.2264
     66  O         23.9190   60.2400   70.3330 O.2   172  PHE172     -0.2867
     67  CB        21.1110   59.0690   69.5950 C.3   172  PHE172      0.0534
     68  CG        19.8720   58.3570   70.0520 C.ar  172  PHE172     -0.0203
     69  CD1       19.6930   57.0080   69.7700 C.ar  172  PHE172     -0.0042
     70  CD2       18.8910   59.0310   70.7710 C.ar  172  PHE172     -0.0042
     71  CE1       18.5550   56.3350   70.2070 C.ar  172  PHE172     -0.0003
     72  CE2       17.7480   58.3710   71.2120 C.ar  172  PHE172     -0.0003
     73  CZ        17.5780   57.0170   70.9330 C.ar  172  PHE172     -0.0000
     74  N         24.3390   61.4990   67.6640 N.3   174  ASP174     -0.1225
     75  CA        24.2080   62.9060   67.3080 C.3   174  ASP174      0.1805
     76  C         24.0620   63.7880   68.5580 C.2   174  ASP174      0.2597
     77  O         24.1360   65.0120   68.4720 O.2   174  ASP174     -0.2718
     78  CB        23.0810   63.1340   66.2790 C.3   174  ASP174      0.1424
     79  CG        21.8460   62.2660   66.5260 C.2   174  ASP174      0.3668
     80  OD1       21.9660   61.0220   66.5700 O.co2 174  ASP174     -0.2456
     81  OD2       20.7380   62.8220   66.6560 O.co2 174  ASP174     -0.2456
     82  N         23.9040   63.1510   69.7210 N.am  175  GLN175     -0.1979
     83  CA        23.7810   63.8530   71.0040 C.3   175  GLN175      0.1601
     84  C         24.8980   63.3770   71.9420 C.2   175  GLN175      0.2287
     85  O         24.7530   63.4410   73.1640 O.2   175  GLN175     -0.2864
     86  CB        22.4260   63.5700   71.6830 C.3   175  GLN175      0.0394
     87  CG        21.1660   64.0360   70.9440 C.3   175  GLN175      0.0908
     88  CD        20.6730   63.0220   69.9160 C.2   175  GLN175      0.2608
     89  OE1       21.4440   62.2150   69.3980 O.2   175  GLN175     -0.2717
     90  NE2       19.3800   63.0620   69.6170 N.am  175  GLN175     -0.0878
     91  N          9.4750   49.2220   72.6330 N.3   194  PRO194     -0.2116
     92  CA         8.8540   50.1810   71.7130 C.3   194  PRO194      0.1372
     93  C          9.3600   49.9230   70.2710 C.2   194  PRO194      0.2244
     94  O         10.5520   49.6610   70.0860 O.2   194  PRO194     -0.2868
     95  CB         9.3650   51.5180   72.2390 C.3   194  PRO194      0.0268
     96  CG         9.4790   51.2630   73.7130 C.3   194  PRO194      0.0207
     97  CD        10.1250   49.9170   73.7600 C.3   194  PRO194      0.0892
     98  N         10.7560   51.1940   67.8390 N.3   196  TYR196     -0.1227
     99  CA        12.0930   51.5650   67.4040 C.3   196  TYR196      0.1736
    100  C         13.0460   51.8330   68.5670 C.2   196  TYR196      0.2596
    101  O         13.9670   52.6430   68.4470 O.2   196  TYR196     -0.2718
    102  CB        12.0230   52.7400   66.4190 C.3   196  TYR196      0.0548
    103  CG        11.2930   52.4110   65.1290 C.ar  196  TYR196     -0.0200
    104  CD1       11.9390   51.7500   64.0840 C.ar  196  TYR196     -0.0009
    105  CD2        9.9460   52.7480   64.9620 C.ar  196  TYR196     -0.0009
    106  CE1       11.2620   51.4270   62.9030 C.ar  196  TYR196      0.0417
    107  CE2        9.2550   52.4290   63.7890 C.ar  196  TYR196      0.0417
    108  CZ         9.9250   51.7670   62.7650 C.ar  196  TYR196      0.1957
    109  OH         9.2560   51.4240   61.6140 O.3   196  TYR196     -0.2866
    110  N         12.8690   51.0830   69.6570 N.am  197  SER197     -0.1938
    111  CA        13.7010   51.2470   70.8460 C.3   197  SER197      0.2055
    112  C         15.0800   50.6850   70.5550 C.2   197  SER197      0.2643
    113  O         15.2120   49.7170   69.8040 O.2   197  SER197     -0.2714
    114  CB        13.0910   50.5130   72.0510 C.3   197  SER197      0.2130
    115  OG        13.8360   50.7180   73.2570 O.3   197  SER197     -0.2179
    116  N         16.0990   51.3110   71.1390 N.am  198  ALA198     -0.1963
    117  CA        17.4840   50.8750   70.9820 C.3   198  ALA198      0.1728
    118  C         17.9200   50.2110   72.2840 C.2   198  ALA198      0.2616
    119  O         19.0690   49.7950   72.4290 O.2   198  ALA198     -0.2715
    120  CB        18.3850   52.0820   70.6660 C.3   198  ALA198      0.0334
    121  N         16.9680   50.0810   73.2010 N.am  199  GLU199     -0.1977
    122  CA        17.1810   49.4930   74.5180 C.3   199  GLU199      0.1602
    123  C         17.3530   47.9820   74.5540 C.2   199  GLU199      0.2287
    124  O         16.5280   47.2160   74.0200 O.2   199  GLU199     -0.2864
    125  CB        16.0100   49.8870   75.4210 C.3   199  GLU199      0.0415
    126  CG        15.9860   49.2860   76.8090 C.3   199  GLU199      0.1163
    127  CD        14.8510   49.8530   77.6500 C.2   199  GLU199      0.3649
    128  OE1       14.9980   50.9820   78.1480 O.co2 199  GLU199     -0.2457
    129  OE2       13.8060   49.1980   77.7970 O.co2 199  GLU199     -0.2457
    130  N         22.9970   52.3520   66.7370 N.3   225  GLU225     -0.1245
    131  CA        21.9540   52.9890   65.9270 C.3   225  GLU225      0.1567
    132  C         21.7170   52.1560   64.6590 C.2   225  GLU225      0.2260
    133  O         20.5960   51.7190   64.4050 O.2   225  GLU225     -0.2867
    134  CB        22.3660   54.4460   65.6220 C.3   225  GLU225      0.0388
    135  CG        21.8190   55.0900   64.3590 C.3   225  GLU225      0.1160
    136  CD        22.1510   56.5800   64.2560 C.2   225  GLU225      0.3649
    137  OE1       21.8190   57.3270   65.1880 O.co2 225  GLU225     -0.2457
    138  OE2       22.7190   57.0220   63.2350 O.co2 225  GLU225     -0.2457
    139  N         20.4970   48.2690   65.6480 N.3   228  MET228     -0.1230
    140  CA        19.1710   48.3630   66.2570 C.3   228  MET228      0.1702
    141  C         18.1130   48.8510   65.2780 C.2   228  MET228      0.2592
    142  O         17.0100   48.3060   65.2540 O.2   228  MET228     -0.2718
    143  CB        19.1990   49.2420   67.5180 C.3   228  MET228      0.0401
    144  CG        20.0530   48.6640   68.6600 C.3   228  MET228      0.0596
    145  SD        19.5000   46.9960   69.1480 S.3   228  MET228     -0.1393
    146  CE        17.8000   47.3650   69.6470 C.3   228  MET228      0.0692
    147  N         18.4540   49.8320   64.4390 N.am  229  TYR229     -0.1976
    148  CA        17.4910   50.3430   63.4670 C.3   229  TYR229      0.1639
    149  C         17.0750   49.2020   62.5480 C.2   229  TYR229      0.2290
    150  O         15.8800   48.9750   62.3030 O.2   229  TYR229     -0.2864
    151  CB        18.0480   51.5130   62.6290 C.3   229  TYR229      0.0560
    152  CG        16.9720   52.1560   61.7580 C.ar  229  TYR229     -0.0198
    153  CD1       15.8390   52.7390   62.3400 C.ar  229  TYR229     -0.0009
    154  CD2       17.0430   52.1010   60.3560 C.ar  229  TYR229     -0.0009
    155  CE1       14.7990   53.2370   61.5590 C.ar  229  TYR229      0.0417
    156  CE2       16.0040   52.6020   59.5600 C.ar  229  TYR229      0.0417
    157  CZ        14.8790   53.1610   60.1690 C.ar  229  TYR229      0.1957
    158  OH        13.8000   53.5800   59.4130 O.3   229  TYR229     -0.2866
@<TRIPOS>BOND
     1   158   157    1
     2   156   157   ar
     3   156   154   ar
     4     4     3    2
     5    19    18    1
     6    19    13    1
     7   157   155   ar
     8     3     2    1
     9    18    17    1
    10   154   152   ar
    11     1     2    1
    12    13    14    1
    13     2     5    1
    14   155   153   ar
    15    17    14    1
    16   109   108    1
    17    15    14    1
    18    15    16    2
    19   152   153   ar
    20   152   151    1
    21   150   149    2
    22     5     6    1
    23   149   148    1
    24   151   148    1
    25   108   106   ar
    26   108   107   ar
    27   106   104   ar
    28     6     8   ar
    29     6     7   ar
    30   138   136   ar
    31     8    10   ar
    32   148   147    1
    33     7     9   ar
    34   107   105   ar
    35   104   103   ar
    36    10    11   ar
    37    20    21    1
    38   136   135    1
    39   136   137   ar
    40   135   134    1
    41   133   132    2
    42   147   141   am
    43     9    11   ar
    44    11    12    1
    45   132   131    1
    46   105   103   ar
    47   103   102    1
    48   142   141    2
    49   141   140    1
    50    22    21    1
    51    22    23    2
    52    21    24    1
    53   134   131    1
    54   139   140    1
    55   131   130    1
    56   140   143    1
    57    78    79    1
    58    78    75    1
    59   102    99    1
    60    79    80   ar
    61    79    81   ar
    62    75    74    1
    63    75    76    1
    64    99    98    1
    65    99   100    1
    66   143   144    1
    67   101   100    2
    68    77    76    2
    69    76    82   am
    70   100   110   am
    71   144   145    1
    72   145   146    1
    73    89    88    2
    74    67    68    1
    75    67    64    1
    76    90    88   am
    77   110   111    1
    78    65    64    1
    79    65    66    2
    80    82    83    1
    81    69    68   ar
    82    69    71   ar
    83   113   112    2
    84    88    87    1
    85    68    70   ar
    86    64    63    1
    87    94    93    2
    88    71    73   ar
    89    93    92    1
    90   112   111    1
    91   112   116   am
    92   120   117    1
    93    70    72   ar
    94   111   114    1
    95    73    72   ar
    96    87    86    1
    97   117   116    1
    98   117   118    1
    99    83    86    1
   100    83    84    1
   101    92    95    1
   102    92    91    1
   103    84    85    2
   104   114   115    1
   105    95    96    1
   106   118   119    2
   107   118   121   am
   108    91    97    1
   109   121   122    1
   110    61    60    1
   111    96    97    1
   112    58    59    1
   113    58    57    1
   114   124   123    2
   115    60    59    2
   116    60    62    1
   117   122   123    1
   118   122   125    1
   119    57    56    1
   120   125   126    1
   121    54    53    1
   122    54    55    2
   123    53    56    1
   124    53    52    1
   125    39    38    2
   126   126   127    1
   127    38    37    1
   128    41    42    1
   129    41    40    1
   130    42    36    1
   131   127   129   ar
   132   127   128   ar
   133    36    37    1
   134    37    40    1
   135    35    33    1
   136    32    33    2
   137    32    31    1
   138    33    34    1
   139    45    46    2
   140    45    44    1
   141    51    50    1
   142    31    30    1
   143    48    49    1
   144    48    47    1
   145    50    49    1
   146    30    29    1
   147    44    47    1
   148    44    43    1
   149    29    26    1
   150    26    27    1
   151    26    25    1
   152    27    28    2
