@<TRIPOS>MOLECULE
tmp/1avnA00.pdb
 91 90 0 0 0
SMALL
GASTEIGER

@<TRIPOS>ATOM
      1  N          8.4430   -0.5220   10.5830 N.3     2  TRP2       -0.1241
      2  CA         7.6970   -1.5200   11.4110 C.3     2  TRP2        0.1605
      3  C          6.7070   -2.3100   10.5730 C.2     2  TRP2        0.2264
      4  O          6.1780   -1.8330    9.5520 O.2     2  TRP2       -0.2867
      5  CB         7.0040   -0.8310   12.6250 C.3     2  TRP2        0.0550
      6  CG         5.8150   -0.0080   12.1920 C.ar    2  TRP2        0.0003
      7  CD1        5.7710    1.2880   11.7870 C.ar    2  TRP2        0.0946
      8  CD2        4.4470   -0.4960   12.1430 C.ar    2  TRP2        0.0152
      9  NE1        4.4710    1.6570   11.4420 N.ar    2  TRP2       -0.2442
     10  CE2        3.6470    0.5410   11.6450 C.ar    2  TRP2        0.0810
     11  CE3        3.8490   -1.7310   12.4440 C.ar    2  TRP2        0.0012
     12  CZ2        2.2710    0.3560   11.4640 C.ar    2  TRP2        0.0191
     13  CZ3        2.4950   -1.8840   12.2490 C.ar    2  TRP2        0.0001
     14  CH2        1.7040   -0.8240   11.8000 C.ar    2  TRP2        0.0015
     15  N         -3.2800    0.3880    3.7010 N.3    59  ASN59      -0.1296
     16  CA        -2.1650    1.2270    4.1540 C.3    59  ASN59       0.1339
     17  C         -0.8920    0.4210    4.3920 C.3    59  ASN59       0.2014
     18  O         -0.0010    1.0500    4.9560 O.3    59  ASN59      -0.2188
     19  CB        -2.4380    2.0480    5.4210 C.3    59  ASN59       0.1102
     20  CG        -2.9040    1.1800    6.5660 C.2    59  ASN59       0.2623
     21  OD1       -2.5260    0.0400    6.6450 O.2    59  ASN59      -0.2716
     22  ND2       -3.7170    1.7330    7.4370 N.am   59  ASN59      -0.0877
     23  N         -0.6310   -2.1670    6.4320 N.3    61  HIS61      -0.1241
     24  CA        -0.6870   -2.9370    7.6810 C.3    61  HIS61       0.1621
     25  C         -2.1200   -3.3740    7.9460 C.2    61  HIS61       0.2264
     26  O         -2.3210   -4.2930    8.7410 O.2    61  HIS61      -0.2867
     27  CB        -0.1320   -2.3710    8.9240 C.3    61  HIS61       0.0745
     28  CG        -0.5780   -0.9850    9.1880 C.ar   61  HIS61       0.0817
     29  ND1       -1.6860   -0.6990    9.9660 N.ar   61  HIS61      -0.2268
     30  CD2       -0.0370    0.2040    8.8000 C.ar   61  HIS61       0.1154
     31  CE1       -1.7880    0.6250   10.0620 C.ar   61  HIS61       0.1986
     32  NE2       -0.8100    1.2020    9.3710 N.ar   61  HIS61      -0.2212
     33  N         -8.3160    0.2970    5.9080 N.3    64  ASN64      -0.1296
     34  CA        -9.1400    1.2360    6.6320 C.3    64  ASN64       0.1339
     35  C        -10.3820    1.7130    5.9520 C.3    64  ASN64       0.2014
     36  O        -10.1850    2.0200    4.7360 O.3    64  ASN64      -0.2188
     37  CB        -8.3570    2.5260    6.9200 C.3    64  ASN64       0.1102
     38  CG        -7.4130    2.5390    8.0890 C.2    64  ASN64       0.2623
     39  OD1       -6.8220    3.5160    8.5220 O.2    64  ASN64      -0.2716
     40  ND2       -7.1100    1.3930    8.6770 N.am   64  ASN64      -0.0877
     41  N        -12.4130    6.3550   11.2650 N.3    89  GLN89      -0.1301
     42  CA       -12.1570    5.1830   10.4750 C.3    89  GLN89       0.1252
     43  C        -12.3760    3.8170   11.0780 C.3    89  GLN89       0.2009
     44  O        -12.2970    3.9080   12.3280 O.3    89  GLN89      -0.2188
     45  CB       -10.7340    5.1330    9.9000 C.3    89  GLN89       0.0314
     46  CG        -9.7080    5.3620   11.0460 C.3    89  GLN89       0.0901
     47  CD        -8.7570    4.2780   11.4070 C.2    89  GLN89       0.2608
     48  OE1       -9.0690    3.0770   11.3150 O.2    89  GLN89      -0.2717
     49  NE2       -7.5280    4.4530   11.8880 N.am   89  GLN89      -0.0878
     50  N        -11.1790   -0.4280   11.0070 N.3    91  HIS91      -0.1241
     51  CA       -10.2630   -1.3820   10.3960 C.3    91  HIS91       0.1621
     52  C        -10.2930   -2.6720   11.2020 C.2    91  HIS91       0.2264
     53  O        -10.9580   -2.7680   12.1890 O.2    91  HIS91      -0.2867
     54  CB        -8.7850   -1.0320   10.3380 C.3    91  HIS91       0.0745
     55  CG        -8.2070   -0.6700   11.6900 C.ar   91  HIS91       0.0817
     56  ND1       -8.2950    0.5590   12.2880 N.ar   91  HIS91      -0.2268
     57  CD2       -7.6050   -1.4440   12.5710 C.ar   91  HIS91       0.1154
     58  CE1       -7.6830    0.5220   13.4560 C.ar   91  HIS91       0.1986
     59  NE2       -7.2740   -0.7370   13.6480 N.ar   91  HIS91      -0.2212
     60  N         -8.2950   15.2250   14.7850 N.3   127  PHE127     -0.1241
     61  CA        -7.6920   13.9850   15.2160 C.3   127  PHE127      0.1605
     62  C         -6.2620   14.2010   15.7130 C.2   127  PHE127      0.2264
     63  O         -5.8400   13.6420   16.6900 O.2   127  PHE127     -0.2867
     64  CB        -7.8120   12.9450   14.0770 C.3   127  PHE127      0.0534
     65  CG        -7.1670   11.6370   14.3930 C.ar  127  PHE127     -0.0203
     66  CD1       -7.8290   10.6600   15.0770 C.ar  127  PHE127     -0.0042
     67  CD2       -5.8370   11.3960   14.0800 C.ar  127  PHE127     -0.0042
     68  CE1       -7.2260    9.4550   15.3890 C.ar  127  PHE127     -0.0003
     69  CE2       -5.1960   10.2110   14.4160 C.ar  127  PHE127     -0.0003
     70  CZ        -5.8910    9.2290   15.0910 C.ar  127  PHE127     -0.0000
     71  N         -0.9180   -0.0990   17.0840 N.3   196  THR196     -0.1204
     72  CA         0.0800   -0.0720   16.0240 C.3   196  THR196      0.1979
     73  C          0.8250    1.2350   16.3150 C.2   196  THR196      0.2460
     74  O          0.3310    2.1960   16.9450 O.2   196  THR196     -0.2732
     75  CB        -0.4770   -0.0550   14.5730 C.3   196  THR196      0.1783
     76  OG1       -1.2570    1.1280   14.6020 O.3   196  THR196     -0.2211
     77  CG2       -1.4060   -1.1820   14.2330 C.3   196  THR196      0.0376
     78  N          2.1030    1.3500   15.9120 N.am  197  PRO197     -0.2718
     79  CA         2.8730    2.5970   16.0990 C.3   197  PRO197      0.1520
     80  C          2.0670    3.7320   15.4810 C.2   197  PRO197      0.2438
     81  O          1.3970    3.5770   14.4430 O.2   197  PRO197     -0.2731
     82  CB         4.1550    2.2500   15.3520 C.3   197  PRO197      0.0310
     83  CG         4.2930    0.7730   15.6640 C.3   197  PRO197      0.0237
     84  CD         2.9120    0.3070   15.2660 C.3   197  PRO197      0.0939
     85  N          2.0740    4.9400   16.0430 N.am  198  PRO198     -0.2772
     86  CA         2.8930    5.2720   17.1980 C.3   198  PRO198      0.1083
     87  C          2.5390    4.8380   18.6190 C.3   198  PRO198      0.2017
     88  O          3.2240    5.4000   19.5180 O.3   198  PRO198     -0.2186
     89  CB         3.0650    6.8180   17.0210 C.3   198  PRO198      0.0243
     90  CG         1.6870    7.1820   16.5990 C.3   198  PRO198      0.0233
     91  CD         1.3500    6.1240   15.5350 C.3   198  PRO198      0.0935
@<TRIPOS>BOND
     1    15    16    1
     2    16    17    1
     3    16    19    1
     4    17    18    1
     5    36    35    1
     6    19    20    1
     7    33    34    1
     8    35    34    1
     9    23    24    1
    10    20    21    2
    11    20    22   am
    12    34    37    1
    13    37    38    1
    14    24    25    1
    15    24    27    1
    16    25    26    2
    17    38    39    2
    18    38    40   am
    19    30    28   ar
    20    30    32   ar
    21    27    28    1
    22    28    29   ar
    23    32    31   ar
    24     4     3    2
    25    45    42    1
    26    45    46    1
    27    29    31   ar
    28    54    51    1
    29    54    55    1
    30    51    50    1
    31    51    52    1
    32    42    43    1
    33    42    41    1
    34     3     2    1
    35     1     2    1
    36    46    47    1
    37    43    44    1
    38    52    53    2
    39    48    47    2
    40    47    49   am
    41     2     5    1
    42     9    10   ar
    43     9     7   ar
    44    12    10   ar
    45    12    14   ar
    46    10     8   ar
    47    55    56   ar
    48    55    57   ar
    49     7     6   ar
    50    14    13   ar
    51     8     6   ar
    52     8    11   ar
    53     6     5    1
    54    13    11   ar
    55    56    58   ar
    56    57    59   ar
    57    58    59   ar
    58    64    65    1
    59    64    61    1
    60    67    65   ar
    61    67    69   ar
    62    77    75    1
    63    65    66   ar
    64    69    70   ar
    65    81    80    2
    66    75    76    1
    67    75    72    1
    68    60    61    1
    69    66    68   ar
    70    70    68   ar
    71    61    62    1
    72    84    83    1
    73    84    78    1
    74    82    83    1
    75    82    79    1
    76    80    85   am
    77    80    79    1
    78    91    85    1
    79    91    90    1
    80    62    63    2
    81    78    79    1
    82    78    73   am
    83    72    73    1
    84    72    71    1
    85    85    86    1
    86    73    74    2
    87    90    89    1
    88    89    86    1
    89    86    87    1
    90    87    88    1
