@<TRIPOS>MOLECULE
tmp/1avpA00.pdb
 228 221 0 0 0
SMALL
GASTEIGER

@<TRIPOS>ATOM
      1  N        -10.6710   54.3380   30.4580 N.3    70  PHE70      -0.1241
      2  CA       -10.7960   54.9000   31.7890 C.3    70  PHE70       0.1605
      3  C        -11.9870   54.2860   32.4990 C.2    70  PHE70       0.2264
      4  O        -13.1350   54.6380   32.2420 O.2    70  PHE70      -0.2867
      5  CB       -10.9530   56.4230   31.7420 C.3    70  PHE70       0.0534
      6  CG       -11.2290   57.0410   33.0900 C.ar   70  PHE70      -0.0203
      7  CD1      -10.1880   57.3390   33.9620 C.ar   70  PHE70      -0.0042
      8  CD2      -12.5400   57.2780   33.5080 C.ar   70  PHE70      -0.0042
      9  CE1      -10.4490   57.8530   35.2250 C.ar   70  PHE70      -0.0003
     10  CE2      -12.8090   57.7870   34.7630 C.ar   70  PHE70      -0.0003
     11  CZ       -11.7680   58.0760   35.6240 C.ar   70  PHE70      -0.0000
     12  N         -7.5080   43.7710   33.9420 N.3    77  ASP77      -0.1239
     13  CA        -8.3340   43.0840   32.9690 C.3    77  ASP77       0.1674
     14  C         -8.8190   41.7970   33.6320 C.2    77  ASP77       0.2266
     15  O         -9.9720   41.4130   33.4920 O.2    77  ASP77      -0.2867
     16  CB        -7.5280   42.7980   31.6990 C.3    77  ASP77       0.1410
     17  CG        -7.1030   44.0740   30.9690 C.2    77  ASP77       0.3668
     18  OD1       -7.5670   45.1780   31.3380 O.co2  77  ASP77      -0.2456
     19  OD2       -6.3100   43.9690   30.0090 O.co2  77  ASP77      -0.2456
     20  N        -12.6260   43.6710   26.4060 N.3    88  TYR88      -0.1227
     21  CA       -12.6050   44.6810   25.3530 C.3    88  TYR88       0.1736
     22  C        -11.5740   44.2890   24.3110 C.2    88  TYR88       0.2595
     23  O        -10.9920   45.1480   23.6280 O.2    88  TYR88      -0.2718
     24  CB       -12.2750   46.0640   25.9300 C.3    88  TYR88       0.0548
     25  CG       -10.9610   46.1290   26.7030 C.ar   88  TYR88      -0.0200
     26  CD1      -10.9150   45.7330   28.0440 C.ar   88  TYR88      -0.0009
     27  CD2       -9.8090   46.5980   26.0700 C.ar   88  TYR88      -0.0009
     28  CE1       -9.7070   45.8000   28.7490 C.ar   88  TYR88       0.0417
     29  CE2       -8.6050   46.6660   26.7730 C.ar   88  TYR88       0.0417
     30  CZ        -8.5520   46.2670   28.1120 C.ar   88  TYR88       0.1957
     31  OH        -7.3750   46.3290   28.7900 O.3    88  TYR88      -0.2866
     32  N        -11.3990   42.9950   24.2590 N.am   89  GLU89      -0.1979
     33  CA       -10.5190   42.3450   23.3110 C.3    89  GLU89       0.1602
     34  C        -11.1080   42.4870   21.8850 C.2    89  GLU89       0.2287
     35  O        -10.5020   42.8770   20.9250 O.2    89  GLU89      -0.2864
     36  CB       -10.3660   40.8690   23.6960 C.3    89  GLU89       0.0415
     37  CG        -9.2730   40.1290   22.9120 C.3    89  GLU89       0.1163
     38  CD        -7.8560   40.6710   23.1470 C.2    89  GLU89       0.3649
     39  OE1       -7.5840   41.3410   24.2140 O.co2  89  GLU89      -0.2457
     40  OE2       -6.9340   40.4600   22.2670 O.co2  89  GLU89      -0.2457
     41  N        -10.8250   46.2080   20.5060 N.3    92  LEU92      -0.1231
     42  CA        -9.4780   46.7130   20.2890 C.3    92  LEU92       0.1693
     43  C         -9.0220   46.2480   18.9040 C.2    92  LEU92       0.2591
     44  O         -8.4880   47.0270   18.1200 O.2    92  LEU92      -0.2718
     45  CB        -8.5020   46.1650   21.3250 C.3    92  LEU92       0.0284
     46  CG        -8.4490   46.8040   22.7010 C.3    92  LEU92       0.0019
     47  CD1       -7.2020   46.3000   23.3980 C.3    92  LEU92       0.0001
     48  CD2       -8.3880   48.3040   22.5730 C.3    92  LEU92       0.0001
     49  N         -9.2220   44.9650   18.6210 N.am   93  ARG93      -0.1980
     50  CA        -8.8410   44.3910   17.3380 C.3    93  ARG93       0.1597
     51  C         -9.5160   45.2000   16.2340 C.2    93  ARG93       0.2287
     52  O         -8.8540   45.7640   15.3590 O.2    93  ARG93      -0.2864
     53  CB        -9.2970   42.9240   17.2600 C.3    93  ARG93       0.0334
     54  CG        -8.5730   42.0940   16.1940 C.3    93  ARG93       0.0492
     55  CD        -9.3210   40.8190   15.8110 C.3    93  ARG93       0.2205
     56  NE        -9.6060   39.9410   16.9480 N.pl3  93  ARG93      -0.0865
     57  CZ       -10.8260   39.6930   17.4200 C.cat  93  ARG93       0.5346
     58  NH1      -11.8880   40.2600   16.8540 N.pl3  93  ARG93       0.1354
     59  NH2      -10.9870   38.8660   18.4500 N.pl3  93  ARG93       0.1354
     60  N         -8.0440   48.6940   15.8070 N.3    96  ALA96      -0.1231
     61  CA        -6.7290   48.7440   15.1730 C.3    96  ALA96       0.1694
     62  C         -6.9000   48.5520   13.6700 C.2    96  ALA96       0.2591
     63  O         -6.4290   49.3580   12.8680 O.2    96  ALA96      -0.2718
     64  CB        -5.8220   47.6630   15.7360 C.3    96  ALA96       0.0304
     65  N         -7.6090   47.4900   13.3130 N.am   97  ILE97      -0.1980
     66  CA        -7.8870   47.1250   11.9330 C.3    97  ILE97       0.1595
     67  C         -8.5610   48.2500   11.1480 C.2    97  ILE97       0.2287
     68  O         -8.1240   48.6060   10.0540 O.2    97  ILE97      -0.2864
     69  CB        -8.7740   45.8410   11.9050 C.3    97  ILE97       0.0276
     70  CG1       -7.9040   44.6000   11.7240 C.3    97  ILE97       0.0022
     71  CG2       -9.8710   45.9290   10.8530 C.3    97  ILE97       0.0022
     72  CD1       -6.8680   44.4070   12.8090 C.3    97  ILE97       0.0001
     73  N         -0.9020   50.3470   10.1160 N.3   102  ASP102     -0.1225
     74  CA        -0.1340   49.1520   10.4430 C.3   102  ASP102      0.1805
     75  C         -0.8530   48.1420   11.3210 C.2   102  ASP102      0.2598
     76  O         -0.2290   47.2260   11.8460 O.2   102  ASP102     -0.2718
     77  CB         1.2540   49.5110   11.0220 C.3   102  ASP102      0.1424
     78  CG         1.2000   50.3000   12.3360 C.2   102  ASP102      0.3668
     79  OD1        0.1070   50.7060   12.8030 O.co2 102  ASP102     -0.2456
     80  OD2        2.2970   50.5260   12.9010 O.co2 102  ASP102     -0.2456
     81  N         -2.1640   48.3180   11.4760 N.am  103  ARG103     -0.1966
     82  CA        -2.9920   47.4270   12.2910 C.3   103  ARG103      0.1729
     83  C         -2.5200   47.2930   13.7460 C.2   103  ARG103      0.2616
     84  O         -2.7870   46.2930   14.4130 O.2   103  ARG103     -0.2715
     85  CB        -3.0870   46.0510   11.6240 C.3   103  ARG103      0.0348
     86  CG        -3.7920   46.0600   10.2670 C.3   103  ARG103      0.0492
     87  CD        -3.5710   44.7490    9.5140 C.3   103  ARG103      0.2205
     88  NE        -4.0900   43.5930   10.2390 N.pl3 103  ARG103     -0.0865
     89  CZ        -5.2970   43.0700   10.0480 C.cat 103  ARG103      0.5346
     90  NH1       -6.1150   43.6030    9.1450 N.pl3 103  ARG103      0.1354
     91  NH2       -5.6930   42.0300   10.7760 N.pl3 103  ARG103      0.1354
     92  N         -1.8310   48.3200   14.2310 N.am  104  CYS104     -0.1954
     93  CA        -1.3430   48.3430   15.6060 C.3   104  CYS104      0.1843
     94  C         -2.0180   49.4820   16.3570 C.2   104  CYS104      0.2625
     95  O         -2.5900   50.3920   15.7490 O.2   104  CYS104     -0.2714
     96  CB         0.1650   48.4990   15.6620 C.3   104  CYS104      0.0997
     97  SG         1.0320   47.0800   14.9540 S.3   104  CYS104     -0.0797
     98  N         -1.9220   49.4540   17.6760 N.am  105  ILE105     -0.1963
     99  CA        -2.5890   50.4360   18.5090 C.3   105  ILE105      0.1727
    100  C         -1.9280   50.4070   19.8780 C.2   105  ILE105      0.2617
    101  O         -1.3510   49.3850   20.2740 O.2   105  ILE105     -0.2715
    102  CB        -4.0930   50.0390   18.6320 C.3   105  ILE105      0.0290
    103  CG1       -4.9940   51.2240   18.3620 C.3   105  ILE105      0.0022
    104  CG2       -4.4280   49.4240   20.0020 C.3   105  ILE105      0.0023
    105  CD1       -6.4550   50.8700   18.5530 C.3   105  ILE105      0.0001
    106  N         -1.9400   51.5400   20.5690 N.am  106  THR106     -0.1937
    107  CA        -1.3850   51.5630   21.9130 C.3   106  THR106      0.2028
    108  C         -2.5330   51.8200   22.8700 C.2   106  THR106      0.2642
    109  O         -3.3230   52.7520   22.6890 O.2   106  THR106     -0.2714
    110  CB        -0.2250   52.5720   22.0980 C.3   106  THR106      0.1808
    111  OG1       -0.4910   53.4180   23.2190 O.3   106  THR106     -0.2208
    112  CG2        0.0040   53.4000   20.8500 C.3   106  THR106      0.0379
    113  N         -2.7060   50.8890   23.7950 N.am  107  LEU107     -0.1963
    114  CA        -3.7530   50.9760   24.7890 C.3   107  LEU107      0.1728
    115  C         -3.1890   51.6210   26.0470 C.2   107  LEU107      0.2616
    116  O         -2.1140   51.2450   26.5180 O.2   107  LEU107     -0.2715
    117  CB        -4.2650   49.5750   25.1270 C.3   107  LEU107      0.0311
    118  CG        -5.3220   49.4660   26.2290 C.3   107  LEU107      0.0022
    119  CD1       -6.6300   50.1440   25.7950 C.3   107  LEU107      0.0001
    120  CD2       -5.5540   48.0120   26.5620 C.3   107  LEU107      0.0001
    121  N         -3.9020   52.6040   26.5730 N.am  108  GLU108     -0.1963
    122  CA        -3.4840   53.2700   27.7920 C.3   108  GLU108      0.1733
    123  C         -4.6880   53.2530   28.7220 C.2   108  GLU108      0.2616
    124  O         -5.7230   53.8670   28.4250 O.2   108  GLU108     -0.2715
    125  CB        -3.0340   54.7030   27.5070 C.3   108  GLU108      0.0429
    126  CG        -2.2490   55.3090   28.6480 C.3   108  GLU108      0.1163
    127  CD        -1.8360   56.7410   28.4030 C.2   108  GLU108      0.3649
    128  OE1       -1.4920   57.0830   27.2520 O.co2 108  GLU108     -0.2457
    129  OE2       -1.8540   57.5290   29.3730 O.co2 108  GLU108     -0.2457
    130  N         -4.5940   52.4760   29.7960 N.am  109  LYS109     -0.1963
    131  CA        -5.6930   52.3890   30.7510 C.3   109  LYS109      0.1728
    132  C         -5.2380   52.7560   32.1420 C.2   109  LYS109      0.2617
    133  O         -4.0910   52.5220   32.5160 O.2   109  LYS109     -0.2715
    134  CB        -6.3150   50.9890   30.7670 C.3   109  LYS109      0.0311
    135  CG        -5.3850   49.9090   31.2500 C.3   109  LYS109      0.0038
    136  CD        -6.1130   48.6000   31.4890 C.3   109  LYS109      0.0206
    137  CE        -7.0550   48.6820   32.6770 C.3   109  LYS109      0.1093
    138  NZ        -7.7810   47.3920   32.8600 N.3   109  LYS109     -0.1314
    139  N         -6.1460   53.3440   32.9030 N.am  110  SER110     -0.1936
    140  CA        -5.8670   53.7520   34.2680 C.3   110  SER110      0.2055
    141  C         -5.6410   52.5360   35.1630 C.2   110  SER110      0.2644
    142  O         -6.3600   51.5410   35.0550 O.2   110  SER110     -0.2714
    143  CB        -7.0530   54.5460   34.7970 C.3   110  SER110      0.2130
    144  OG        -8.2290   53.7690   34.6660 O.3   110  SER110     -0.2179
    145  N         -4.6490   52.6030   36.0440 N.am  111  THR111     -0.1936
    146  CA        -4.3910   51.5010   36.9540 C.3   111  THR111      0.2028
    147  C         -4.7030   51.8770   38.4150 C.2   111  THR111      0.2642
    148  O         -4.2450   51.2120   39.3450 O.2   111  THR111     -0.2714
    149  CB        -2.9470   51.0610   36.8560 C.3   111  THR111      0.1808
    150  OG1       -2.0990   52.1630   37.2070 O.3   111  THR111     -0.2208
    151  CG2       -2.6280   50.6170   35.4480 C.3   111  THR111      0.0379
    152  N         -5.4730   52.9430   38.6190 N.am  112  GLN112     -0.1976
    153  CA        -5.8200   53.4030   39.9630 C.3   112  GLN112      0.1601
    154  C         -7.3020   53.7220   40.0680 C.2   112  GLN112      0.2287
    155  O         -7.9460   53.9740   39.0600 O.2   112  GLN112     -0.2864
    156  CB        -5.0340   54.6610   40.2980 C.3   112  GLN112      0.0394
    157  CG        -3.5280   54.4610   40.4290 C.3   112  GLN112      0.0908
    158  CD        -2.8330   55.7550   40.7830 C.2   112  GLN112      0.2608
    159  OE1       -3.2670   56.8220   40.3600 O.2   112  GLN112     -0.2717
    160  NE2       -1.7740   55.6760   41.5780 N.am  112  GLN112     -0.0878
    161  N        -10.5090   56.1020   41.4820 N.3   114  VAL114     -0.1245
    162  CA       -10.8450   57.4760   41.8520 C.3   114  VAL114      0.1561
    163  C        -12.2160   57.4380   42.5450 C.2   114  VAL114      0.2260
    164  O        -12.6460   58.4100   43.1700 O.2   114  VAL114     -0.2867
    165  CB       -10.9450   58.4240   40.6180 C.3   114  VAL114      0.0252
    166  CG1       -9.6100   58.5510   39.9440 C.3   114  VAL114      0.0019
    167  CG2      -11.9720   57.9340   39.6330 C.3   114  VAL114      0.0019
    168  N         -5.2120   61.3520   31.2150 N.3   141  MET141     -0.1230
    169  CA        -5.2430   60.6610   32.5140 C.3   141  MET141      0.1702
    170  C         -4.8090   61.5220   33.6970 C.2   141  MET141      0.2592
    171  O         -5.3810   61.4290   34.7820 O.2   141  MET141     -0.2718
    172  CB        -4.3740   59.3970   32.4870 C.3   141  MET141      0.0401
    173  CG        -4.7840   58.3430   31.4620 C.3   141  MET141      0.0596
    174  SD        -6.3430   57.5280   31.8430 S.3   141  MET141     -0.1393
    175  CE        -6.3820   56.2450   30.6140 C.3   141  MET141      0.0692
    176  N         -3.7760   62.3310   33.5080 N.am  142  ASP142     -0.1960
    177  CA        -3.2840   63.1670   34.5860 C.3   142  ASP142      0.1840
    178  C         -2.5230   64.3230   33.9830 C.2   142  ASP142      0.2622
    179  O         -2.3780   64.4000   32.7700 O.2   142  ASP142     -0.2715
    180  CB        -2.3550   62.3490   35.4870 C.3   142  ASP142      0.1450
    181  CG        -2.0260   63.0550   36.7900 C.2   142  ASP142      0.3671
    182  OD1       -2.8030   63.9370   37.2190 O.co2 142  ASP142     -0.2456
    183  OD2       -0.9810   62.7250   37.3870 O.co2 142  ASP142     -0.2456
    184  N         -2.0090   65.1990   34.8400 N.am  143  HIS143     -0.1973
    185  CA        -1.2380   66.3460   34.4000 C.3   143  HIS143      0.1656
    186  C         -2.0400   67.3050   33.5290 C.2   143  HIS143      0.2291
    187  O         -1.5610   67.7790   32.5000 O.2   143  HIS143     -0.2864
    188  CB         0.0410   65.8980   33.6850 C.3   143  HIS143      0.0771
    189  CG         1.0520   65.2560   34.5840 C.ar  143  HIS143      0.0820
    190  ND1        1.2720   63.8920   34.6130 N.ar  143  HIS143     -0.2267
    191  CD2        1.9120   65.7940   35.4850 C.ar  143  HIS143      0.1154
    192  CE1        2.2260   63.6170   35.4920 C.ar  143  HIS143      0.1986
    193  NE2        2.6310   64.7530   36.0320 N.ar  143  HIS143     -0.2212
    194  N         -8.2290   66.6040   35.4270 N.3   147  MET147     -0.1230
    195  CA        -7.8670   65.4340   36.2200 C.3   147  MET147      0.1702
    196  C         -6.9890   65.7090   37.4280 C.2   147  MET147      0.2592
    197  O         -6.8180   64.8360   38.2920 O.2   147  MET147     -0.2718
    198  CB        -7.2530   64.3500   35.3350 C.3   147  MET147      0.0401
    199  CG        -8.2380   63.7660   34.3400 C.3   147  MET147      0.0596
    200  SD        -9.6450   62.9270   35.1060 S.3   147  MET147     -0.1393
    201  CE        -8.9020   61.3030   35.4030 C.3   147  MET147      0.0692
    202  N         -6.3970   66.8950   37.4750 N.am  148  ASN148     -0.1974
    203  CA        -5.5830   67.2610   38.6200 C.3   148  ASN148      0.1688
    204  C         -6.5060   67.5250   39.8170 C.2   148  ASN148      0.2292
    205  O         -6.0460   67.6400   40.9510 O.2   148  ASN148     -0.2864
    206  CB        -4.7390   68.4990   38.3200 C.3   148  ASN148      0.1181
    207  CG        -3.5560   68.1890   37.4370 C.2   148  ASN148      0.2629
    208  OD1       -3.2580   67.0310   37.1520 O.2   148  ASN148     -0.2716
    209  ND2       -2.8810   69.2250   36.9780 N.am  148  ASN148     -0.0877
    210  N         -8.7370   65.4280   40.9170 N.3   150  ILE150     -0.1231
    211  CA        -8.9890   64.1980   41.6500 C.3   150  ILE150      0.1692
    212  C         -7.7070   63.3970   41.8490 C.2   150  ILE150      0.2593
    213  O         -6.7380   63.5660   41.1040 O.2   150  ILE150     -0.2718
    214  CB       -10.0660   63.3370   40.9420 C.3   150  ILE150      0.0266
    215  CG1       -9.5810   62.9080   39.5580 C.3   150  ILE150      0.0019
    216  CG2      -11.3960   64.1120   40.8480 C.3   150  ILE150      0.0020
    217  CD1      -10.6340   62.2570   38.7240 C.3   150  ILE150      0.0001
    218  N         -7.7080   62.5030   42.8320 N.am  151  THR151     -0.1939
    219  CA        -6.5280   61.7090   43.1350 C.3   151  THR151      0.2028
    220  C         -6.7680   60.2240   42.9930 C.2   151  THR151      0.2642
    221  O         -7.7290   59.6930   43.5370 O.2   151  THR151     -0.2714
    222  CB        -6.0450   61.9730   44.5840 C.3   151  THR151      0.1808
    223  OG1       -5.8030   63.3760   44.7580 O.3   151  THR151     -0.2208
    224  CG2       -4.7680   61.1880   44.8850 C.3   151  THR151      0.0379
    225  N         -5.8680   59.5620   42.2810 N.am  152  GLY152     -0.1954
    226  CA        -5.9680   58.1340   42.0870 C.3   152  GLY152      0.1869
    227  C         -5.3460   57.4080   43.2600 C.2   152  GLY152      0.2309
    228  O         -4.3450   57.8400   43.8330 O.2   152  GLY152     -0.2863
@<TRIPOS>BOND
     1    90    89    1
     2    87    88    1
     3    87    86    1
     4    89    88    2
     5    89    91    1
     6    68    67    2
     7    73    74    1
     8    86    85    1
     9    74    77    1
    10    74    75    1
    11    71    69    1
    12    77    78    1
    13    67    66    1
    14    75    81   am
    15    75    76    2
    16    81    82    1
    17    85    82    1
    18    70    69    1
    19    70    72    1
    20    69    66    1
    21    66    65    1
    22    82    83    1
    23    78    79   ar
    24    78    80   ar
    25    63    62    2
    26    65    62   am
    27    62    61    1
    28    83    92   am
    29    83    84    2
    30    92    93    1
    31    97    96    1
    32    61    64    1
    33    61    60    1
    34    52    51    2
    35    93    96    1
    36    93    94    1
    37    95    94    2
    38    55    54    1
    39    55    56    1
    40    54    53    1
    41    51    50    1
    42    94    98   am
    43    58    57    1
    44    56    57    2
    45    53    50    1
    46    50    49    1
    47    57    59    1
    48    98    99    1
    49    44    43    2
    50   103   105    1
    51   103   102    1
    52    99   102    1
    53    99   100    1
    54    49    43   am
    55   102   104    1
    56    43    42    1
    57   100   101    2
    58   100   106   am
    59    42    41    1
    60    42    45    1
    61   106   107    1
    62   112   110    1
    63    35    34    2
    64    45    46    1
    65    34    33    1
    66   107   110    1
    67   107   108    1
    68   110   111    1
    69    40    38   ar
    70    48    46    1
    71   109   108    2
    72    46    47    1
    73   108   113   am
    74    37    38    1
    75    37    36    1
    76    38    39   ar
    77    33    36    1
    78    33    32    1
    79    23    22    2
    80   113   114    1
    81    32    22   am
    82    22    21    1
    83   114   117    1
    84   114   115    1
    85   117   118    1
    86    21    24    1
    87    21    20    1
    88   119   118    1
    89    24    25    1
    90   115   116    2
    91   115   121   am
    92    27    25   ar
    93    27    29   ar
    94   118   120    1
    95   121   122    1
    96    25    26   ar
    97    29    30   ar
    98   128   127   ar
    99   125   122    1
   100   125   126    1
   101   122   123    1
   102    26    28   ar
   103    30    28   ar
   104    30    31    1
   105   127   126    1
   106   127   129   ar
   107   124   123    2
   108   123   130   am
   109   130   131    1
   110    19    17   ar
   111     1     2    1
   112   175   174    1
   113   131   134    1
   114   131   132    1
   115   134   135    1
   116    17    18   ar
   117    17    16    1
   118   168   169    1
   119   135   136    1
   120   173   174    1
   121   173   172    1
   122   136   137    1
   123    16    13    1
   124     5     2    1
   125     5     6    1
   126     2     3    1
   127   132   133    2
   128   132   139   am
   129     4     3    2
   130   172   169    1
   131   187   186    2
   132   169   170    1
   133   137   138    1
   134   179   178    2
   135   139   140    1
   136    13    14    1
   137    13    12    1
   138     6     8   ar
   139     6     7   ar
   140    15    14    2
   141     8    10   ar
   142   176   170   am
   143   176   177    1
   144   186   185    1
   145   188   185    1
   146   188   189    1
   147   170   171    2
   148     7     9   ar
   149   178   177    1
   150   178   184   am
   151   140   143    1
   152   140   141    1
   153   199   200    1
   154   199   198    1
   155   185   184    1
   156   189   190   ar
   157   189   191   ar
   158   177   180    1
   159   190   192   ar
   160   144   143    1
   161    10    11   ar
   162   142   141    2
   163   200   201    1
   164   141   145   am
   165     9    11   ar
   166   198   195    1
   167   194   195    1
   168   151   149    1
   169   191   193   ar
   170   180   181    1
   171   192   193   ar
   172   145   146    1
   173   195   196    1
   174   181   182   ar
   175   181   183   ar
   176   149   146    1
   177   149   150    1
   178   146   147    1
   179   209   207   am
   180   208   207    2
   181   196   202   am
   182   196   197    2
   183   207   206    1
   184   202   203    1
   185   206   203    1
   186   147   152   am
   187   147   148    2
   188   152   153    1
   189   203   204    1
   190   217   215    1
   191   155   154    2
   192   215   214    1
   193   167   165    1
   194   204   205    2
   195   166   165    1
   196   153   154    1
   197   153   156    1
   198   156   157    1
   199   159   158    2
   200   157   158    1
   201   165   162    1
   202   158   160   am
   203   216   214    1
   204   210   211    1
   205   214   211    1
   206   213   212    2
   207   161   162    1
   208   211   212    1
   209   212   218   am
   210   162   163    1
   211   226   225    1
   212   226   227    1
   213   225   220   am
   214   163   164    2
   215   218   219    1
   216   220   219    1
   217   220   221    2
   218   219   222    1
   219   227   228    2
   220   222   223    1
   221   222   224    1
