@<TRIPOS>MOLECULE
tmp/1aw1G00.pdb
 97 91 0 0 0
SMALL
GASTEIGER

@<TRIPOS>ATOM
      1  N         27.0190   55.6140   24.4660 N.3     8  ASN8       -0.1240
      2  CA        26.9670   56.4000   23.2500 C.3     8  ASN8        0.1653
      3  C         25.4850   56.5540   22.9080 C.2     8  ASN8        0.2266
      4  O         24.8550   55.6120   22.4630 O.2     8  ASN8       -0.2867
      5  CB        27.6970   55.6670   22.1440 C.3     8  ASN8        0.1155
      6  CG        27.5450   56.3470   20.8060 C.2     8  ASN8        0.2627
      7  OD1       27.1120   57.5000   20.7240 O.2     8  ASN8       -0.2716
      8  ND2       27.8910   55.6280   19.7420 N.am    8  ASN8       -0.0877
      9  N         24.1480   58.2010   20.5630 N.3    10  LYS10      -0.1245
     10  CA        23.8960   58.2990   19.1420 C.3    10  LYS10       0.1561
     11  C         22.9180   59.4240   18.8590 C.2    10  LYS10       0.2260
     12  O         22.9840   60.4770   19.4990 O.2    10  LYS10      -0.2867
     13  CB        23.4030   56.9770   18.5780 C.3    10  LYS10       0.0271
     14  CG        24.3710   55.8670   18.8750 C.3    10  LYS10       0.0035
     15  CD        24.0350   54.5460   18.2190 C.3    10  LYS10       0.0206
     16  CE        25.0930   53.5810   18.6140 C.3    10  LYS10       0.1093
     17  NZ        24.9910   52.3860   17.8020 N.3    10  LYS10      -0.1314
     18  N         33.8580   55.5700   15.0030 N.3    96  HIS96      -0.1241
     19  CA        32.7470   54.6680   15.1590 C.3    96  HIS96       0.1621
     20  C         32.4070   54.0880   13.8090 C.2    96  HIS96       0.2264
     21  O         32.5840   54.7490   12.8080 O.2    96  HIS96      -0.2867
     22  CB        31.5360   55.3750   15.7580 C.3    96  HIS96       0.0745
     23  CG        30.5270   54.4270   16.3310 C.ar   96  HIS96       0.0817
     24  ND1       29.5550   53.8140   15.5640 N.ar   96  HIS96      -0.2268
     25  CD2       30.3620   53.9630   17.5840 C.ar   96  HIS96       0.1154
     26  CE1       28.8390   53.0170   16.3260 C.ar   96  HIS96       0.1986
     27  NE2       29.3080   53.0870   17.5550 N.ar   96  HIS96      -0.2212
     28  N         34.7750   46.8550   18.5900 N.3   168  GLU168     -0.1245
     29  CA        33.3830   46.5730   18.2370 C.3   168  GLU168      0.1567
     30  C         33.2190   45.6900   17.0000 C.2   168  GLU168      0.2260
     31  O         33.5420   46.1050   15.9060 O.2   168  GLU168     -0.2867
     32  CB        32.6440   47.8780   18.0440 C.3   168  GLU168      0.0388
     33  CG        32.6700   48.6930   19.3200 C.3   168  GLU168      0.1160
     34  CD        31.7890   49.9290   19.2780 C.2   168  GLU168      0.3649
     35  OE1       31.6930   50.5970   18.2150 O.co2 168  GLU168     -0.2457
     36  OE2       31.2120   50.2360   20.3400 O.co2 168  GLU168     -0.2457
     37  N         26.9810   45.3170   16.5220 N.3   173  ILE173     -0.1231
     38  CA        26.3920   46.6220   16.8090 C.3   173  ILE173      0.1692
     39  C         24.9390   46.6790   16.3400 C.2   173  ILE173      0.2592
     40  O         24.6240   46.2920   15.1880 O.2   173  ILE173     -0.2718
     41  CB        27.2420   47.7880   16.2120 C.3   173  ILE173      0.0266
     42  CG1       28.5540   47.9100   16.9880 C.3   173  ILE173      0.0019
     43  CG2       26.4710   49.1200   16.2640 C.3   173  ILE173      0.0020
     44  CD1       29.4660   48.9410   16.4300 C.3   173  ILE173      0.0001
     45  N         24.0680   47.0690   17.2780 N.am  174  GLY174     -0.1957
     46  CA        22.6360   47.1960   17.0470 C.3   174  GLY174      0.1869
     47  C         21.8500   45.9440   16.6660 C.2   174  GLY174      0.2309
     48  O         20.6190   45.9030   16.8030 O.2   174  GLY174     -0.2863
     49  N         32.5710   46.4860   22.5600 N.3   211  GLY211     -0.1210
     50  CA        31.4340   47.1970   22.0250 C.3   211  GLY211      0.1956
     51  C         30.3670   46.4750   21.2160 C.2   211  GLY211      0.2612
     52  O         29.7630   47.0600   20.3470 O.2   211  GLY211     -0.2717
     53  N         30.0820   45.2290   21.4960 N.am  212  GLY212     -0.1942
     54  CA        29.0440   44.5550   20.7300 C.3   212  GLY212      0.2014
     55  C         27.7320   45.0220   21.2850 C.2   212  GLY212      0.2640
     56  O         27.6100   46.2120   21.5150 O.2   212  GLY212     -0.2714
     57  N         26.7900   44.1170   21.5400 N.am  213  SER213     -0.1935
     58  CA        25.5040   44.5140   22.1080 C.3   213  SER213      0.2055
     59  C         25.5420   44.2150   23.6110 C.2   213  SER213      0.2642
     60  O         24.9390   43.2410   24.0720 O.2   213  SER213     -0.2714
     61  CB        24.3170   43.7380   21.4960 C.3   213  SER213      0.2130
     62  OG        24.1910   43.8560   20.0840 O.3   213  SER213     -0.2179
     63  N         26.2460   45.0300   24.3850 N.am  214  VAL214     -0.1977
     64  CA        26.2840   44.8020   25.8170 C.3   214  VAL214      0.1596
     65  C         24.8990   45.1180   26.4290 C.2   214  VAL214      0.2287
     66  O         24.2910   46.1480   26.1300 O.2   214  VAL214     -0.2864
     67  CB        27.4000   45.6380   26.4530 C.3   214  VAL214      0.0276
     68  CG1       27.4640   45.4220   27.9370 C.3   214  VAL214      0.0022
     69  CG2       28.7220   45.2580   25.8050 C.3   214  VAL214      0.0022
     70  N         31.4130   50.0040   25.6720 N.3   232  LEU232     -0.1231
     71  CA        30.9310   51.1940   24.9700 C.3   232  LEU232      0.1693
     72  C         29.5250   50.7230   24.6550 C.2   232  LEU232      0.2592
     73  O         29.3460   49.8080   23.8850 O.2   232  LEU232     -0.2718
     74  CB        31.6950   51.4570   23.6780 C.3   232  LEU232      0.0284
     75  CG        31.2450   52.6860   22.8770 C.3   232  LEU232      0.0019
     76  CD1       31.1690   53.9500   23.7350 C.3   232  LEU232      0.0001
     77  CD2       32.2090   52.8720   21.7210 C.3   232  LEU232      0.0001
     78  N         28.5530   51.2680   25.3670 N.am  233  VAL233     -0.1966
     79  CA        27.1620   50.8670   25.2370 C.3   233  VAL233      0.1727
     80  C         26.3340   51.8060   24.3660 C.2   233  VAL233      0.2617
     81  O         26.4350   53.0350   24.4670 O.2   233  VAL233     -0.2715
     82  CB        26.4960   50.8180   26.6420 C.3   233  VAL233      0.0290
     83  CG1       25.1310   50.1950   26.5450 C.3   233  VAL233      0.0023
     84  CG2       27.3970   50.1190   27.6680 C.3   233  VAL233      0.0023
     85  N         25.4710   51.2180   23.5450 N.am  234  GLY234     -0.1940
     86  CA        24.6050   52.0040   22.6810 C.3   234  GLY234      0.2014
     87  C         23.1760   51.9900   23.2030 C.2   234  GLY234      0.2639
     88  O         22.8410   52.7600   24.0930 O.2   234  GLY234     -0.2714
     89  N         22.3510   51.0960   22.6590 N.am  235  GLY235     -0.1939
     90  CA        20.9630   50.9860   23.0590 C.3   235  GLY235      0.2014
     91  C         20.6600   50.8650   24.5380 C.2   235  GLY235      0.2638
     92  O         19.6810   51.4340   25.0050 O.2   235  GLY235     -0.2714
     93  N         21.4520   50.1100   25.2900 N.am  236  ALA236     -0.1977
     94  CA        21.1880   49.9730   26.7160 C.3   236  ALA236      0.1597
     95  C         21.5530   51.2280   27.4780 C.2   236  ALA236      0.2287
     96  O         21.2410   51.3290   28.6560 O.2   236  ALA236     -0.2864
     97  CB        21.9410   48.8180   27.2660 C.3   236  ALA236      0.0319
@<TRIPOS>BOND
     1    21    20    2
     2    20    19    1
     3    18    19    1
     4    19    22    1
     5    40    39    2
     6    24    26   ar
     7    24    23   ar
     8    22    23    1
     9    31    30    2
    10    41    43    1
    11    41    38    1
    12    41    42    1
    13    26    27   ar
    14    23    25   ar
    15    39    38    1
    16    39    45   am
    17    44    42    1
    18    37    38    1
    19    47    48    2
    20    47    46    1
    21    30    29    1
    22    46    45    1
    23    27    25   ar
    24    17    16    1
    25    32    29    1
    26    32    33    1
    27    35    34   ar
    28    15    16    1
    29    15    14    1
    30    29    28    1
    31    13    14    1
    32    13    10    1
    33    11    10    1
    34    11    12    2
    35    10     9    1
    36    34    33    1
    37    34    36   ar
    38     8     6   am
    39    62    61    1
    40    52    51    2
    41     7     6    2
    42    54    55    1
    43    54    53    1
    44     6     5    1
    45    51    53   am
    46    51    50    1
    47    55    56    2
    48    55    57   am
    49    61    58    1
    50    57    58    1
    51    77    75    1
    52    50    49    1
    53    58    59    1
    54     5     2    1
    55     4     3    2
    56    89    90    1
    57    89    87   am
    58    86    87    1
    59    86    85    1
    60    75    74    1
    61    75    76    1
    62     3     2    1
    63    90    91    1
    64    87    88    2
    65     2     1    1
    66    85    80   am
    67    59    60    2
    68    59    63   am
    69    74    71    1
    70    73    72    2
    71    80    81    2
    72    80    79    1
    73    63    64    1
    74    91    92    2
    75    91    93   am
    76    72    71    1
    77    72    78   am
    78    71    70    1
    79    79    78    1
    80    79    82    1
    81    93    94    1
    82    69    67    1
    83    64    65    1
    84    64    67    1
    85    66    65    2
    86    67    68    1
    87    83    82    1
    88    82    84    1
    89    94    97    1
    90    94    95    1
    91    95    96    2
