@<TRIPOS>MOLECULE
tmp/1awfB01.pdb
 229 227 0 0 0
SMALL
GASTEIGER

@<TRIPOS>ATOM
      1  N          7.1440   26.0640   62.2960 N.3    27  LEU27      -0.1231
      2  CA         6.1930   25.6070   61.2870 C.3    27  LEU27       0.1693
      3  C          6.5810   25.8950   59.8260 C.2    27  LEU27       0.2592
      4  O          6.5480   25.0690   58.9170 O.2    27  LEU27      -0.2718
      5  CB         4.8290   26.2250   61.6080 C.3    27  LEU27       0.0284
      6  CG         4.2320   25.7950   62.9390 C.3    27  LEU27       0.0019
      7  CD1        2.8950   26.4920   63.0060 C.3    27  LEU27       0.0001
      8  CD2        4.0750   24.2710   63.1280 C.3    27  LEU27       0.0001
      9  N          6.9660   27.1510   59.6320 N.am   28  CYS28      -0.1970
     10  CA         7.2590   27.6160   58.2620 C.3    28  CYS28       0.1712
     11  C          7.9710   28.9400   58.2660 C.2    28  CYS28       0.2296
     12  O          8.1370   29.5810   59.2890 O.2    28  CYS28      -0.2864
     13  CB         5.9710   27.9590   57.5420 C.3    28  CYS28       0.0983
     14  SG         5.0740   26.5960   56.7560 S.3    28  CYS28      -0.0798
     15  N         -1.1130   27.0380   52.9790 N.3    43  HIS43      -0.1241
     16  CA        -0.9270   25.6790   53.5170 C.3    43  HIS43       0.1621
     17  C         -0.2200   25.4850   54.8680 C.2    43  HIS43       0.2264
     18  O         -0.2500   24.4420   55.5040 O.2    43  HIS43      -0.2867
     19  CB        -0.3310   24.7380   52.4750 C.3    43  HIS43       0.0745
     20  CG         1.1660   24.7180   52.3980 C.ar   43  HIS43       0.0817
     21  ND1        1.8340   25.2570   51.3920 N.ar   43  HIS43      -0.2268
     22  CD2        2.0550   24.1870   53.3140 C.ar   43  HIS43       0.1154
     23  CE1        3.1580   25.1040   51.6340 C.ar   43  HIS43       0.1986
     24  NE2        3.2580   24.4510   52.8140 N.ar   43  HIS43      -0.2212
     25  N         -4.3820   23.0030   56.1390 N.3    47  TYR47      -0.1241
     26  CA        -4.2210   21.8090   55.3370 C.3    47  TYR47       0.1605
     27  C         -5.0480   20.6050   55.8220 C.2    47  TYR47       0.2264
     28  O         -4.5780   19.7300   56.5480 O.2    47  TYR47      -0.2867
     29  CB        -2.7480   21.4870   55.3300 C.3    47  TYR47       0.0534
     30  CG        -2.4570   20.5510   54.2050 C.ar   47  TYR47      -0.0201
     31  CD1       -2.8120   20.9190   52.9190 C.ar   47  TYR47      -0.0009
     32  CD2       -1.8360   19.3480   54.4580 C.ar   47  TYR47      -0.0009
     33  CE1       -2.5560   20.0870   51.8350 C.ar   47  TYR47       0.0417
     34  CE2       -1.5650   18.5150   53.3880 C.ar   47  TYR47       0.0417
     35  CZ        -1.9250   18.8790   52.0810 C.ar   47  TYR47       0.1957
     36  OH        -1.7110   18.0230   51.0170 O.3    47  TYR47      -0.2866
     37  N         -4.3860   16.7950   56.4620 N.3    50  TRP50      -0.1241
     38  CA        -3.6440   16.4390   57.6560 C.3    50  TRP50       0.1605
     39  C         -4.2770   16.9140   58.8920 C.2    50  TRP50       0.2264
     40  O         -3.6170   17.0450   59.8980 O.2    50  TRP50      -0.2867
     41  CB        -2.2760   17.0920   57.6720 C.3    50  TRP50       0.0550
     42  CG        -1.3400   16.3950   56.7570 C.ar   50  TRP50       0.0003
     43  CD1       -1.5580   15.2290   56.0030 C.ar   50  TRP50       0.0946
     44  CD2       -0.0270   16.7790   56.4940 C.ar   50  TRP50       0.0152
     45  NE1       -0.4660   14.8560   55.2790 N.ar   50  TRP50      -0.2442
     46  CE2        0.5160   15.7730   55.5520 C.ar   50  TRP50       0.0810
     47  CE3        0.7670   17.8400   56.9240 C.ar   50  TRP50       0.0012
     48  CZ2        1.8350   15.9110   55.1150 C.ar   50  TRP50       0.0191
     49  CZ3        2.0740   17.9400   56.4540 C.ar   50  TRP50       0.0001
     50  CH2        2.6020   16.9920   55.5690 C.ar   50  TRP50       0.0015
     51  N         -4.6270   19.8660   59.4990 N.3    52  LYS52      -0.1245
     52  CA        -3.9990   21.1440   59.8730 C.3    52  LYS52       0.1561
     53  C         -4.8640   22.3890   59.6620 C.2    52  LYS52       0.2260
     54  O         -5.2450   22.7610   58.5670 O.2    52  LYS52      -0.2867
     55  CB        -2.6890   21.2920   59.1210 C.3    52  LYS52       0.0271
     56  CG        -1.8690   22.4990   59.5930 C.3    52  LYS52       0.0035
     57  CD        -0.6730   22.7700   58.6770 C.3    52  LYS52       0.0206
     58  CE         0.2990   21.6020   58.6020 C.3    52  LYS52       0.1093
     59  NZ         1.4050   22.0320   57.7410 N.3    52  LYS52      -0.1314
     60  N         -2.5830   23.0600   45.4670 N.3    96  LEU96      -0.1245
     61  CA        -2.1330   24.2410   46.2440 C.3    96  LEU96       0.1561
     62  C         -2.1420   25.5620   45.4630 C.2    96  LEU96       0.2260
     63  O         -1.3740   26.4740   45.6870 O.2    96  LEU96      -0.2867
     64  CB        -0.7430   24.0670   46.9370 C.3    96  LEU96       0.0270
     65  CG        -0.5820   22.8750   47.8970 C.3    96  LEU96       0.0019
     66  CD1        0.6990   22.9620   48.7260 C.3    96  LEU96       0.0001
     67  CD2       -1.7780   22.7220   48.8170 C.3    96  LEU96       0.0001
     68  N         13.2160   14.6180   52.5390 N.3   147  THR147     -0.1203
     69  CA        12.6340   14.8570   53.8840 C.3   147  THR147      0.1994
     70  C         11.4540   14.0210   54.3380 C.2   147  THR147      0.2618
     71  O         11.2470   13.6330   55.4870 O.2   147  THR147     -0.2717
     72  CB        12.1080   16.2950   53.9770 C.3   147  THR147      0.1784
     73  OG1       11.4000   16.6410   52.7460 O.3   147  THR147     -0.2211
     74  CG2       13.2470   17.2590   54.3280 C.3   147  THR147      0.0376
     75  N         10.6250   13.7600   53.3590 N.am  148  TRP148     -0.1961
     76  CA         9.4600   13.0080   53.7890 C.3   148  TRP148      0.1771
     77  C          9.0880   11.8260   52.8900 C.2   148  TRP148      0.2620
     78  O          8.1230   11.8530   52.1550 O.2   148  TRP148     -0.2715
     79  CB         8.3180   14.0160   54.1450 C.3   148  TRP148      0.0590
     80  CG         7.5350   14.6900   53.0100 C.ar  148  TRP148      0.0006
     81  CD1        6.1750   15.0560   53.1250 C.ar  148  TRP148      0.0946
     82  CD2        7.9050   15.0190   51.6770 C.ar  148  TRP148      0.0152
     83  NE1        5.6830   15.5630   51.9680 N.ar  148  TRP148     -0.2442
     84  CE2        6.6890   15.5640   51.0370 C.ar  148  TRP148      0.0810
     85  CE3        9.0720   14.9170   50.9130 C.ar  148  TRP148      0.0012
     86  CZ2        6.7270   15.9500   49.6980 C.ar  148  TRP148      0.0191
     87  CZ3        9.0610   15.3190   49.5790 C.ar  148  TRP148      0.0001
     88  CH2        7.9050   15.8260   48.9780 C.ar  148  TRP148      0.0015
     89  N          9.8740   10.7230   52.9590 N.am  149  THR149     -0.1951
     90  CA        11.3310   10.6490   52.5700 C.3   149  THR149      0.1897
     91  C         12.5300   11.2790   53.3460 C.2   149  THR149      0.2313
     92  O         13.4270   11.8190   52.7240 O.2   149  THR149     -0.2863
     93  CB        11.5580   10.9890   51.0420 C.3   149  THR149      0.1794
     94  OG1       11.0260   12.2880   50.6790 O.3   149  THR149     -0.2208
     95  CG2       10.9550    9.9130   50.1230 C.3   149  THR149      0.0378
     96  N          1.3510   17.1870   38.2970 N.3   179  ILE179     -0.1245
     97  CA         0.3670   18.1060   38.9000 C.3   179  ILE179      0.1561
     98  C         -0.1030   19.1800   37.9220 C.2   179  ILE179      0.2260
     99  O          0.6440   19.7090   37.1280 O.2   179  ILE179     -0.2867
    100  CB         1.0760   18.7290   40.1240 C.3   179  ILE179      0.0252
    101  CG1        1.4980   17.6620   41.1400 C.3   179  ILE179      0.0019
    102  CG2        0.3050   19.8230   40.8500 C.3   179  ILE179      0.0019
    103  CD1        0.3510   17.0380   41.9440 C.3   179  ILE179      0.0001
    104  N         17.9340   23.9940   46.2440 N.3   199  ASP199     -0.1225
    105  CA        16.4760   24.0380   46.3770 C.3   199  ASP199      0.1805
    106  C         16.0420   24.4330   47.7950 C.2   199  ASP199      0.2598
    107  O         16.8040   24.3900   48.7330 O.2   199  ASP199     -0.2718
    108  CB        15.8650   22.6650   46.0090 C.3   199  ASP199      0.1424
    109  CG        14.3450   22.6210   45.7170 C.2   199  ASP199      0.3668
    110  OD1       13.6650   23.6510   45.6100 O.co2 199  ASP199     -0.2456
    111  OD2       13.8260   21.5080   45.5970 O.co2 199  ASP199     -0.2456
    112  N         14.7750   24.8050   47.9350 N.am  200  ALA200     -0.1966
    113  CA        14.1080   24.7770   49.2240 C.3   200  ALA200      0.1728
    114  C         13.8180   23.3650   49.6910 C.2   200  ALA200      0.2616
    115  O         14.0350   22.3790   49.0130 O.2   200  ALA200     -0.2715
    116  CB        12.7710   25.5580   49.2210 C.3   200  ALA200      0.0334
    117  N         13.3220   23.3020   50.8970 N.am  201  CYS201     -0.1954
    118  CA        12.9760   21.9880   51.4530 C.3   201  CYS201      0.1843
    119  C         12.0380   22.1240   52.6120 C.2   201  CYS201      0.2625
    120  O         11.7700   23.2360   53.0340 O.2   201  CYS201     -0.2714
    121  CB        14.2110   21.2300   51.9310 C.3   201  CYS201      0.0997
    122  SG        13.9610   19.4480   52.0630 S.3   201  CYS201     -0.0797
    123  N         11.5710   21.0130   53.1520 N.am  202  GLU202     -0.1963
    124  CA        10.5930   21.1250   54.2300 C.3   202  GLU202      0.1733
    125  C         10.9400   22.1090   55.3730 C.2   202  GLU202      0.2616
    126  O         12.0930   22.2410   55.7550 O.2   202  GLU202     -0.2715
    127  CB        10.4290   19.6840   54.7070 C.3   202  GLU202      0.0429
    128  CG         9.0710   19.3750   55.3170 C.3   202  GLU202      0.1163
    129  CD         8.7750   17.8760   55.1590 C.2   202  GLU202      0.3649
    130  OE1        8.3900   17.4370   54.0490 O.co2 202  GLU202     -0.2457
    131  OE2        8.9340   17.1580   56.1640 O.co2 202  GLU202     -0.2457
    132  N          9.9370   22.8420   55.8860 N.am  203  GLY203     -0.1955
    133  CA        10.1770   23.9280   56.8630 C.3   203  GLY203      0.1869
    134  C         10.5600   25.3100   56.3020 C.2   203  GLY203      0.2309
    135  O         10.4930   26.3460   56.9500 O.2   203  GLY203     -0.2863
    136  N          8.8130   26.2280   53.5160 N.3   205  SER205     -0.1217
    137  CA         7.5320   26.7180   52.9830 C.3   205  SER205      0.1889
    138  C          7.1120   28.0450   53.5780 C.2   205  SER205      0.2288
    139  O          7.4280   28.3290   54.7370 O.2   205  SER205     -0.2866
    140  CB         6.4380   25.7140   53.3600 C.3   205  SER205      0.2089
    141  OG         6.5860   24.5190   52.5340 O.3   205  SER205     -0.2183
    142  N          7.5220   30.4210   48.7780 N.3   225  VAL225     -0.1231
    143  CA         7.8160   28.9620   48.6760 C.3   225  VAL225      0.1692
    144  C          6.5930   28.0440   48.8970 C.2   225  VAL225      0.2593
    145  O          5.9160   28.0690   49.9190 O.2   225  VAL225     -0.2718
    146  CB         8.9810   28.5570   49.6690 C.3   225  VAL225      0.0266
    147  CG1        9.3820   27.0540   49.5330 C.3   225  VAL225      0.0020
    148  CG2       10.2670   29.3960   49.4770 C.3   225  VAL225      0.0020
    149  N          6.2820   27.2770   47.8660 N.am  226  SER226     -0.1938
    150  CA         4.9510   26.6360   48.0180 C.3   226  SER226      0.2055
    151  C          5.0890   25.1440   48.0290 C.2   226  SER226      0.2643
    152  O          4.8230   24.4380   48.9850 O.2   226  SER226     -0.2714
    153  CB         3.9770   27.0190   46.8700 C.3   226  SER226      0.2130
    154  OG         2.6350   26.5120   47.0520 O.3   226  SER226     -0.2179
    155  N          5.5860   24.6510   46.8990 N.am  227  TRP227     -0.1959
    156  CA         5.6670   23.1890   46.8310 C.3   227  TRP227      0.1771
    157  C          6.6960   22.6400   45.8780 C.2   227  TRP227      0.2620
    158  O          7.1710   23.2640   44.9440 O.2   227  TRP227     -0.2715
    159  CB         4.2460   22.5660   46.6650 C.3   227  TRP227      0.0590
    160  CG         3.6850   22.8150   45.2870 C.ar  227  TRP227      0.0006
    161  CD1        2.9000   23.9090   44.8830 C.ar  227  TRP227      0.0946
    162  CD2        3.8630   22.0260   44.1230 C.ar  227  TRP227      0.0152
    163  NE1        2.5960   23.8750   43.5560 N.ar  227  TRP227     -0.2442
    164  CE2        3.1650   22.7290   43.0360 C.ar  227  TRP227      0.0810
    165  CE3        4.5080   20.8200   43.8420 C.ar  227  TRP227      0.0012
    166  CZ2        3.1910   22.1610   41.7710 C.ar  227  TRP227      0.0191
    167  CZ3        4.5100   20.2990   42.5620 C.ar  227  TRP227      0.0001
    168  CH2        3.8550   20.9640   41.5230 C.ar  227  TRP227      0.0015
    169  N          7.1000   21.4270   46.1650 N.am  228  GLY228     -0.1940
    170  CA         7.9910   20.7870   45.2020 C.3   228  GLY228      0.2014
    171  C          7.8290   19.3140   45.4000 C.2   228  GLY228      0.2639
    172  O          7.2010   18.8640   46.3390 O.2   228  GLY228     -0.2714
    173  N          8.3890   18.5510   44.5030 N.am  229  GLU229     -0.1963
    174  CA         8.4130   17.0960   44.7550 C.3   229  GLU229      0.1733
    175  C          9.7880   16.5720   45.1840 C.2   229  GLU229      0.2617
    176  O         10.7790   16.5190   44.4770 O.2   229  GLU229     -0.2715
    177  CB         7.8910   16.3950   43.4870 C.3   229  GLU229      0.0429
    178  CG         6.4650   16.8540   43.1690 C.3   229  GLU229      0.1163
    179  CD         6.0740   16.5730   41.7250 C.2   229  GLU229      0.3649
    180  OE1        6.8900   16.5920   40.8080 O.co2 229  GLU229     -0.2457
    181  OE2        4.9010   16.3500   41.5040 O.co2 229  GLU229     -0.2457
    182  N          9.8420   16.2310   46.4540 N.am  230  GLY230     -0.1940
    183  CA        11.1860   16.0580   47.0030 C.3   230  GLY230      0.2014
    184  C         11.9160   17.3810   47.2280 C.2   230  GLY230      0.2639
    185  O         11.2950   18.4340   47.2730 O.2   230  GLY230     -0.2714
    186  N         13.2360   17.3080   47.3440 N.am  231  CYS231     -0.1967
    187  CA        14.0040   18.5540   47.4440 C.3   231  CYS231      0.1712
    188  C         15.2990   18.4250   46.7340 C.2   231  CYS231      0.2296
    189  O         16.0720   17.5540   47.0490 O.2   231  CYS231     -0.2864
    190  CB        14.4220   18.8800   48.8590 C.3   231  CYS231      0.0983
    191  SG        13.0660   18.7940   49.9940 S.3   231  CYS231     -0.0798
    192  N         15.8550   17.3680   43.7260 N.3   233  ARG233     -0.1245
    193  CA        15.9190   16.2540   42.7550 C.3   233  ARG233      0.1563
    194  C         16.1800   16.6670   41.3350 C.2   233  ARG233      0.2260
    195  O         15.5100   17.5450   40.8090 O.2   233  ARG233     -0.2867
    196  CB        14.6150   15.4540   42.7240 C.3   233  ARG233      0.0307
    197  CG        14.1620   15.1620   44.1630 C.3   233  ARG233      0.0489
    198  CD        13.7900   13.7350   44.5660 C.3   233  ARG233      0.2205
    199  NE        12.3950   13.4090   44.2730 N.pl3 233  ARG233     -0.0865
    200  CZ        11.6130   12.8390   45.2140 C.cat 233  ARG233      0.5346
    201  NH1       12.0460   12.6250   46.4470 N.pl3 233  ARG233      0.1354
    202  NH2       10.3540   12.4840   44.9250 N.pl3 233  ARG233      0.1354
    203  N         11.2710   23.7190   41.9340 N.3   238  GLY238     -0.1210
    204  CA        10.4330   24.1880   43.0520 C.3   238  GLY238      0.1956
    205  C          9.3130   25.0830   42.5810 C.2   238  GLY238      0.2612
    206  O          9.4590   25.8460   41.6520 O.2   238  GLY238     -0.2717
    207  N          8.1900   24.9740   43.2190 N.am  239  PHE239     -0.1962
    208  CA         7.0640   25.8060   42.7820 C.3   239  PHE239      0.1771
    209  C          6.6920   26.8710   43.7960 C.2   239  PHE239      0.2619
    210  O          6.6250   26.6930   45.0180 O.2   239  PHE239     -0.2715
    211  CB         5.8230   24.9380   42.5090 C.3   239  PHE239      0.0574
    212  CG         5.9550   24.1550   41.2140 C.ar  239  PHE239     -0.0200
    213  CD1        6.6450   22.9490   41.1340 C.ar  239  PHE239     -0.0042
    214  CD2        5.4510   24.6780   40.0300 C.ar  239  PHE239     -0.0042
    215  CE1        6.8460   22.2970   39.9120 C.ar  239  PHE239     -0.0003
    216  CE2        5.6590   24.0260   38.8110 C.ar  239  PHE239     -0.0003
    217  CZ         6.3620   22.8240   38.7330 C.ar  239  PHE239     -0.0000
    218  N          6.4610   28.0470   43.2310 N.am  240  TYR240     -0.1974
    219  CA         6.2350   29.2160   44.1010 C.3   240  TYR240      0.1639
    220  C          4.9330   29.9100   43.8000 C.2   240  TYR240      0.2290
    221  O          4.5620   30.1090   42.6550 O.2   240  TYR240     -0.2864
    222  CB         7.3810   30.2540   43.8850 C.3   240  TYR240      0.0560
    223  CG         8.7760   29.7050   44.2120 C.ar  240  TYR240     -0.0198
    224  CD1        9.4800   28.8910   43.3260 C.ar  240  TYR240     -0.0009
    225  CD2        9.2810   29.9370   45.4730 C.ar  240  TYR240     -0.0009
    226  CE1       10.6620   28.2760   43.7180 C.ar  240  TYR240      0.0417
    227  CE2       10.4640   29.3280   45.8500 C.ar  240  TYR240      0.0417
    228  CZ        11.1390   28.4910   44.9980 C.ar  240  TYR240      0.1957
    229  OH        12.2610   27.8630   45.4810 O.3   240  TYR240     -0.2866
@<TRIPOS>BOND
     1    99    98    2
     2    98    97    1
     3    96    97    1
     4   217   216   ar
     5   217   215   ar
     6   216   214   ar
     7    97   100    1
     8   215   213   ar
     9   214   212   ar
    10   100   102    1
    11   100   101    1
    12   180   179   ar
    13   195   194    2
    14   213   212   ar
    15   101   103    1
    16   212   211    1
    17   194   193    1
    18   181   179   ar
    19   168   166   ar
    20   168   167   ar
    21   206   205    2
    22   179   178    1
    23   166   164   ar
    24   203   204    1
    25   211   208    1
    26   167   165   ar
    27   205   204    1
    28   205   207   am
    29   221   220    2
    30   196   193    1
    31   196   197    1
    32   193   192    1
    33   208   207    1
    34   208   209    1
    35   164   163   ar
    36   164   162   ar
    37   178   177    1
    38   218   209   am
    39   218   219    1
    40   224   226   ar
    41   224   223   ar
    42   177   174    1
    43   163   161   ar
    44   226   228   ar
    45   209   210    2
    46   220   219    1
    47   165   162   ar
    48   222   219    1
    49   222   223    1
    50   162   160   ar
    51   197   198    1
    52   223   225   ar
    53   199   198    1
    54   199   200    2
    55   176   175    2
    56   173   174    1
    57   173   171   am
    58   174   175    1
    59   161   160   ar
    60   202   200    1
    61   158   157    2
    62   228   229    1
    63   228   227   ar
    64   175   182   am
    65   170   171    1
    66   170   169    1
    67   200   201    1
    68   160   159    1
    69   171   172    2
    70    62    63    2
    71    62    61    1
    72    60    61    1
    73   225   227   ar
    74   111   109   ar
    75   110   109   ar
    76   109   108    1
    77   157   169   am
    78   157   156    1
    79   108   105    1
    80    61    64    1
    81   104   105    1
    82   105   106    1
    83   182   183    1
    84   159   156    1
    85   188   189    2
    86   188   187    1
    87   156   155    1
    88   153   154    1
    89   153   150    1
    90   155   151   am
    91    64    65    1
    92   183   184    1
    93   184   185    2
    94   184   186   am
    95   186   187    1
    96   187   190    1
    97   106   112   am
    98   106   107    2
    99   149   150    1
   100   149   144   am
   101    65    66    1
   102    65    67    1
   103   112   113    1
   104   150   151    1
   105   151   152    2
   106   143   142    1
   107   143   144    1
   108   143   146    1
   109   190   191    1
   110   144   145    2
   111    88    87   ar
   112    88    86   ar
   113   115   114    2
   114   116   113    1
   115   113   114    1
   116   148   146    1
   117   147   146    1
   118    87    85   ar
   119   114   117   am
   120    86    84   ar
   121   191   122    1
   122    95    93    1
   123    94    93    1
   124   117   118    1
   125    85    82   ar
   126    36    35    1
   127    84    82   ar
   128    84    83   ar
   129    93    90    1
   130    21    23   ar
   131    21    20   ar
   132   118   121    1
   133   118   119    1
   134    23    24   ar
   135    82    80   ar
   136    33    35   ar
   137    33    31   ar
   138   121   122    1
   139    83    81   ar
   140    35    34   ar
   141    78    77    2
   142    20    19    1
   143    20    22   ar
   144    19    16    1
   145   141   140    1
   146    68    69    1
   147    90    89    1
   148    90    91    1
   149   119   120    2
   150   119   123   am
   151    92    91    2
   152    73    72    1
   153    24    22   ar
   154    77    89   am
   155    77    76    1
   156    31    30   ar
   157    15    16    1
   158   137   140    1
   159   137   136    1
   160   137   138    1
   161    80    81   ar
   162    80    79    1
   163   123   124    1
   164    75    76    1
   165    75    70   am
   166    34    32   ar
   167    16    17    1
   168   138   139    2
   169    76    79    1
   170    69    72    1
   171    69    70    1
   172    72    74    1
   173   130   129   ar
   174    30    32   ar
   175    30    29    1
   176   124   127    1
   177   124   125    1
   178    70    71    2
   179   127   128    1
   180    17    18    2
   181    48    46   ar
   182    48    50   ar
   183   129   128    1
   184   129   131   ar
   185    45    46   ar
   186    45    43   ar
   187    29    26    1
   188    26    27    1
   189    26    25    1
   190   125   126    2
   191   125   132   am
   192    46    44   ar
   193    50    49   ar
   194    27    28    2
   195   132   133    1
   196    43    42   ar
   197   134   133    1
   198   134   135    2
   199    49    47   ar
   200    37    38    1
   201    44    42   ar
   202    44    47   ar
   203    14    13    1
   204    42    41    1
   205    13    10    1
   206    38    41    1
   207    38    39    1
   208    59    58    1
   209    10    11    1
   210    10     9    1
   211    11    12    2
   212    54    53    2
   213    58    57    1
   214    57    56    1
   215    39    40    2
   216     4     3    2
   217    55    56    1
   218    55    52    1
   219    51    52    1
   220     9     3   am
   221    53    52    1
   222     3     2    1
   223     2     5    1
   224     2     1    1
   225     5     6    1
   226     6     7    1
   227     6     8    1
