@<TRIPOS>MOLECULE
tmp/1awhB00.pdb
 212 212 0 0 0
SMALL
GASTEIGER

@<TRIPOS>ATOM
      1  N         -0.8560   11.0990   80.3090 N.3    27  LEU27      -0.1231
      2  CA        -1.6660   12.0180   79.5040 C.3    27  LEU27       0.1693
      3  C         -1.9440   13.4030   80.0980 C.2    27  LEU27       0.2592
      4  O         -1.7500   14.4730   79.5380 O.2    27  LEU27      -0.2718
      5  CB        -3.0120   11.3560   79.3100 C.3    27  LEU27       0.0284
      6  CG        -2.8810   10.0100   78.6360 C.3    27  LEU27       0.0019
      7  CD1       -4.1720    9.2230   78.8260 C.3    27  LEU27       0.0001
      8  CD2       -2.5420   10.1880   77.1610 C.3    27  LEU27       0.0001
      9  N         -2.4320   13.3100   81.3170 N.am   28  CYS28      -0.1970
     10  CA        -2.5780   14.5520   82.0790 C.3    28  CYS28       0.1712
     11  C         -2.5770   14.2840   83.5700 C.2    28  CYS28       0.2296
     12  O         -2.3930   13.1600   84.0190 O.2    28  CYS28      -0.2864
     13  CB        -3.9250   15.1750   81.7940 C.3    28  CYS28       0.0983
     14  SG        -4.2550   15.3890   80.0660 S.3    28  CYS28      -0.0798
     15  N        -10.4880   18.2670   77.4390 N.3    43  HIS43      -0.1241
     16  CA        -9.4340   18.0120   76.4250 C.3    43  HIS43       0.1621
     17  C         -8.3190   16.9710   76.5990 C.2    43  HIS43       0.2264
     18  O         -7.4990   16.7420   75.7240 O.2    43  HIS43      -0.2867
     19  CB        -8.7830   19.3290   75.9880 C.3    43  HIS43       0.0745
     20  CG        -7.5930   19.7790   76.7870 C.ar   43  HIS43       0.0817
     21  ND1       -7.6510   20.7860   77.6490 N.ar   43  HIS43      -0.2268
     22  CD2       -6.2930   19.2910   76.7440 C.ar   43  HIS43       0.1154
     23  CE1       -6.3940   20.9620   78.1500 C.ar   43  HIS43       0.1986
     24  NE2       -5.5810   20.0510   77.5860 N.ar   43  HIS43      -0.2212
     25  N        -10.1030   15.4650   72.2200 N.3    47  TYR47      -0.1241
     26  CA        -9.6040   16.6360   71.4740 C.3    47  TYR47       0.1605
     27  C         -9.4130   16.4180   69.9620 C.2    47  TYR47       0.2264
     28  O         -8.3130   16.1270   69.5000 O.2    47  TYR47      -0.2867
     29  CB        -8.2390   16.9760   72.0730 C.3    47  TYR47       0.0534
     30  CG        -7.7110   18.3010   71.5920 C.ar   47  TYR47      -0.0201
     31  CD1       -8.4780   19.4380   71.7460 C.ar   47  TYR47      -0.0009
     32  CD2       -6.4840   18.3350   70.9560 C.ar   47  TYR47      -0.0009
     33  CE1       -7.9890   20.6250   71.2290 C.ar   47  TYR47       0.0417
     34  CE2       -5.9930   19.5200   70.4380 C.ar   47  TYR47       0.0417
     35  CZ        -6.7570   20.6650   70.5830 C.ar   47  TYR47       0.1957
     36  OH        -6.2830   21.8720   70.1070 O.3    47  TYR47      -0.2866
     37  N         -6.4880   16.4470   67.3470 N.3    50  TRP50      -0.1241
     38  CA        -5.2790   15.7480   67.7040 C.3    50  TRP50       0.1605
     39  C         -5.4570   14.2320   67.7090 C.2    50  TRP50       0.2264
     40  O         -4.6140   13.4770   68.1850 O.2    50  TRP50      -0.2867
     41  CB        -4.8960   16.2610   69.0870 C.3    50  TRP50       0.0550
     42  CG        -3.8020   17.2870   69.0350 C.ar   50  TRP50       0.0003
     43  CD1       -3.3290   17.9490   67.8970 C.ar   50  TRP50       0.0946
     44  CD2       -2.9590   17.6910   70.0870 C.ar   50  TRP50       0.0152
     45  NE1       -2.2430   18.7270   68.1690 N.ar   50  TRP50      -0.2442
     46  CE2       -1.9650   18.5970   69.5020 C.ar   50  TRP50       0.0810
     47  CE3       -2.7990   17.3020   71.4000 C.ar   50  TRP50       0.0012
     48  CZ2       -0.8870   19.0160   70.2590 C.ar   50  TRP50       0.0191
     49  CZ3       -1.6980   17.7420   72.1220 C.ar   50  TRP50       0.0001
     50  CH2       -0.7510   18.5840   71.5630 C.ar   50  TRP50       0.0015
     51  N         -6.9280   12.4060   69.5450 N.3    52  LYS52      -0.1245
     52  CA        -7.0170   12.0630   70.9550 C.3    52  LYS52       0.1561
     53  C         -8.4720   12.0450   71.2950 C.2    52  LYS52       0.2260
     54  O         -9.1890   13.0190   71.3760 O.2    52  LYS52      -0.2867
     55  CB        -6.1850   13.0900   71.6990 C.3    52  LYS52       0.0271
     56  CG        -6.3120   13.2130   73.2060 C.3    52  LYS52       0.0035
     57  CD        -5.1480   14.0720   73.7620 C.3    52  LYS52       0.0206
     58  CE        -5.4070   14.7630   75.1220 C.3    52  LYS52       0.1093
     59  NZ        -4.2380   15.4600   75.7000 N.3    52  LYS52      -0.1314
     60  N        -11.6110   26.1910   73.7250 N.3    96  LEU96      -0.1245
     61  CA       -11.6670   25.2950   74.8980 C.3    96  LEU96       0.1561
     62  C        -12.6260   25.6820   75.9910 C.2    96  LEU96       0.2260
     63  O        -12.5380   25.2200   77.1040 O.2    96  LEU96      -0.2867
     64  CB       -10.3040   25.0590   75.5620 C.3    96  LEU96       0.0270
     65  CG        -9.2860   24.3970   74.6460 C.3    96  LEU96       0.0019
     66  CD1       -7.9490   24.1730   75.3060 C.3    96  LEU96       0.0001
     67  CD2       -9.7550   23.0130   74.3330 C.3    96  LEU96       0.0001
     68  N          8.3850   22.2860   73.1240 N.3   148  TRP148     -0.1241
     69  CA         7.5010   22.7080   72.0310 C.3   148  TRP148      0.1605
     70  C          8.4000   22.8840   70.7640 C.2   148  TRP148      0.2264
     71  O          8.1410   22.4390   69.6610 O.2   148  TRP148     -0.2867
     72  CB         6.8190   24.0440   72.4990 C.3   148  TRP148      0.0550
     73  CG         5.9130   23.8790   73.7260 C.ar  148  TRP148      0.0003
     74  CD1        6.1190   23.0510   74.8520 C.ar  148  TRP148      0.0946
     75  CD2        4.6490   24.4680   73.9730 C.ar  148  TRP148      0.0152
     76  NE1        5.1200   23.0710   75.7650 N.ar  148  TRP148     -0.2442
     77  CE2        4.1760   23.9470   75.2840 C.ar  148  TRP148      0.0810
     78  CE3        3.8310   25.3720   73.2810 C.ar  148  TRP148      0.0012
     79  CZ2        2.9010   24.3240   75.7530 C.ar  148  TRP148      0.0191
     80  CZ3        2.5650   25.7220   73.7900 C.ar  148  TRP148      0.0001
     81  CH2        2.1080   25.2240   75.0210 C.ar  148  TRP148      0.0015
     82  N         -7.5780   35.0890   71.9310 N.3   179  ILE179     -0.1245
     83  CA        -8.5690   34.0140   71.9820 C.3   179  ILE179      0.1561
     84  C         -9.7740   34.3380   72.8270 C.2   179  ILE179      0.2260
     85  O         -9.6200   34.8740   73.9090 O.2   179  ILE179     -0.2867
     86  CB        -7.8260   32.7850   72.4880 C.3   179  ILE179      0.0252
     87  CG1       -7.1570   32.1240   71.3030 C.3   179  ILE179      0.0019
     88  CG2       -8.6690   31.7290   73.1850 C.3   179  ILE179      0.0019
     89  CD1       -6.1490   31.0960   71.7950 C.3   179  ILE179      0.0001
     90  N          4.5180   28.8190   85.9680 N.3   199  ASP199     -0.1225
     91  CA         3.2540   28.5820   85.2400 C.3   199  ASP199      0.1805
     92  C          3.1250   27.1030   85.0450 C.2   199  ASP199      0.2598
     93  O          4.1170   26.3930   85.1260 O.2   199  ASP199     -0.2718
     94  CB         3.2680   29.2690   83.8540 C.3   199  ASP199      0.1424
     95  CG         1.9580   29.3430   83.0770 C.2   199  ASP199      0.3668
     96  OD1        0.8830   29.3460   83.6910 O.co2 199  ASP199     -0.2456
     97  OD2        2.0250   29.4210   81.8360 O.co2 199  ASP199     -0.2456
     98  N          1.8940   26.6580   84.7790 N.am  200  ALA200     -0.1966
     99  CA         1.6940   25.2850   84.3190 C.3   200  ALA200      0.1728
    100  C          2.2590   25.1170   82.9280 C.2   200  ALA200      0.2616
    101  O          2.5670   26.1150   82.3090 O.2   200  ALA200     -0.2715
    102  CB         0.2310   24.9080   84.2530 C.3   200  ALA200      0.0334
    103  N          2.4330   23.8580   82.4810 N.am  201  CYS201     -0.1954
    104  CA         2.9730   23.5430   81.1250 C.3   201  CYS201      0.1843
    105  C          2.5380   22.1850   80.6260 C.2   201  CYS201      0.2625
    106  O          1.8420   21.4480   81.2890 O.2   201  CYS201     -0.2714
    107  CB         4.5140   23.5640   81.0260 C.3   201  CYS201      0.0997
    108  SG         5.1510   23.7740   79.3260 S.3   201  CYS201     -0.0797
    109  N          2.9470   21.8390   79.4520 N.am  202  GLU202     -0.1963
    110  CA         2.2910   20.6610   78.9050 C.3   202  GLU202      0.1733
    111  C          2.5470   19.3930   79.6850 C.2   202  GLU202      0.2617
    112  O          3.6670   19.0860   80.0800 O.2   202  GLU202     -0.2715
    113  CB         2.7870   20.6630   77.4620 C.3   202  GLU202      0.0429
    114  CG         3.0160   19.3380   76.7350 C.3   202  GLU202      0.1163
    115  CD         3.7520   19.6800   75.4640 C.2   202  GLU202      0.3649
    116  OE1        3.0420   19.9830   74.4970 O.co2 202  GLU202     -0.2457
    117  OE2        5.0060   19.6670   75.4390 O.co2 202  GLU202     -0.2457
    118  N          1.4520   18.6970   79.9380 N.am  203  GLY203     -0.1940
    119  CA         1.4940   17.6100   80.9340 C.3   203  GLY203      0.2014
    120  C          0.6540   17.9570   82.1840 C.2   203  GLY203      0.2639
    121  O          0.1440   17.1320   82.9140 O.2   203  GLY203     -0.2714
    122  N          0.4960   19.2550   82.4340 N.am  204  ASP204     -0.1957
    123  CA        -0.2450   19.6110   83.6240 C.3   204  ASP204      0.1840
    124  C         -1.7120   19.7340   83.3420 C.2   204  ASP204      0.2622
    125  O         -2.5340   19.8500   84.2350 O.2   204  ASP204     -0.2715
    126  CB         0.2320   20.9390   84.2120 C.3   204  ASP204      0.1450
    127  CG         1.7130   20.9350   84.6040 C.2   204  ASP204      0.3671
    128  OD1        2.3610   19.8950   84.5870 O.co2 204  ASP204     -0.2456
    129  OD2        2.2580   21.9890   84.9110 O.co2 204  ASP204     -0.2456
    130  N         -2.1030   19.7420   82.0870 N.am  205  SER205     -0.1950
    131  CA        -3.5510   19.9620   81.8440 C.3   205  SER205      0.1924
    132  C         -4.4430   19.0650   82.7170 C.2   205  SER205      0.2314
    133  O         -4.1170   17.9350   83.0130 O.2   205  SER205     -0.2863
    134  CB        -3.9380   19.6750   80.3670 C.3   205  SER205      0.2116
    135  OG        -2.9390   20.0230   79.6120 O.3   205  SER205     -0.2180
    136  N         -6.4040   22.9880   85.4610 N.3   225  VAL225     -0.1231
    137  CA        -5.5160   23.5180   84.3980 C.3   225  VAL225      0.1692
    138  C         -5.9500   23.2060   82.9850 C.2   225  VAL225      0.2593
    139  O         -6.0850   22.0610   82.6130 O.2   225  VAL225     -0.2718
    140  CB        -4.1200   23.0020   84.5850 C.3   225  VAL225      0.0266
    141  CG1       -3.1400   23.5570   83.5740 C.3   225  VAL225      0.0020
    142  CG2       -3.7490   23.3370   86.0250 C.3   225  VAL225      0.0020
    143  N         -6.2380   24.2610   82.2330 N.am  226  SER226     -0.1938
    144  CA        -6.9770   24.1130   80.9810 C.3   226  SER226      0.2055
    145  C         -6.1040   24.4980   79.8280 C.2   226  SER226      0.2643
    146  O         -5.6050   23.6810   79.0790 O.2   226  SER226     -0.2714
    147  CB        -8.2240   24.9690   81.1040 C.3   226  SER226      0.2130
    148  OG        -8.9630   25.0180   79.9060 O.3   226  SER226     -0.2179
    149  N         -5.8130   25.7710   79.7010 N.am  227  TRP227     -0.1959
    150  CA        -4.9590   26.0680   78.5410 C.3   227  TRP227      0.1771
    151  C         -3.9810   27.2010   78.6580 C.2   227  TRP227      0.2620
    152  O         -3.8160   27.8060   79.6990 O.2   227  TRP227     -0.2715
    153  CB        -5.7820   26.2670   77.2720 C.3   227  TRP227      0.0590
    154  CG        -6.6830   27.4820   77.3010 C.ar  227  TRP227      0.0006
    155  CD1       -8.0170   27.4570   77.7000 C.ar  227  TRP227      0.0946
    156  CD2       -6.4590   28.8000   76.8550 C.ar  227  TRP227      0.0152
    157  NE1       -8.6160   28.6580   77.5280 N.ar  227  TRP227     -0.2442
    158  CE2       -7.7030   29.5250   77.0130 C.ar  227  TRP227      0.0810
    159  CE3       -5.4080   29.4790   76.2680 C.ar  227  TRP227      0.0012
    160  CZ2       -7.7910   30.8310   76.5670 C.ar  227  TRP227      0.0191
    161  CZ3       -5.5430   30.7870   75.8350 C.ar  227  TRP227      0.0001
    162  CH2       -6.7260   31.4610   75.9970 C.ar  227  TRP227      0.0015
    163  N         -3.3220   27.4610   77.5400 N.am  228  GLY228     -0.1940
    164  CA        -2.2700   28.4680   77.5220 C.3   228  GLY228      0.2014
    165  C         -1.5590   28.5590   76.1960 C.2   228  GLY228      0.2639
    166  O         -1.3490   27.5990   75.4730 O.2   228  GLY228     -0.2714
    167  N         -1.1690   29.7600   75.8770 N.am  229  GLU229     -0.1963
    168  CA        -0.2590   29.8690   74.7270 C.3   229  GLU229      0.1733
    169  C          1.1820   29.6680   75.1290 C.2   229  GLU229      0.2617
    170  O          1.9090   30.6040   75.4120 O.2   229  GLU229     -0.2715
    171  CB        -0.4570   31.2610   74.0930 C.3   229  GLU229      0.0429
    172  CG        -1.6650   31.1870   73.1530 C.3   229  GLU229      0.1163
    173  CD        -2.2160   32.5430   72.8670 C.2   229  GLU229      0.3649
    174  OE1       -2.7970   33.1320   73.7890 O.co2 229  GLU229     -0.2457
    175  OE2       -2.0730   32.9920   71.7270 O.co2 229  GLU229     -0.2457
    176  N          1.6010   28.4260   75.2220 N.am  230  GLY230     -0.1940
    177  CA         2.9850   28.3210   75.7510 C.3   230  GLY230      0.2014
    178  C          3.2320   28.0870   77.2570 C.2   230  GLY230      0.2639
    179  O          2.3590   27.8990   78.0750 O.2   230  GLY230     -0.2714
    180  N          4.4830   28.1260   77.6440 N.am  231  CYS231     -0.1967
    181  CA         4.7120   28.0180   79.0830 C.3   231  CYS231      0.1712
    182  C          5.4850   29.1690   79.6100 C.2   231  CYS231      0.2296
    183  O          6.5110   29.5310   79.0740 O.2   231  CYS231     -0.2864
    184  CB         5.4750   26.7500   79.3770 C.3   231  CYS231      0.0983
    185  SG         4.3490   25.5340   78.7790 S.3   231  CYS231     -0.0798
    186  N         -1.8630   32.0160   82.3940 N.3   238  GLY238     -0.1210
    187  CA        -2.4620   30.6900   82.1480 C.3   238  GLY238      0.1956
    188  C         -3.9900   30.5650   82.3560 C.2   238  GLY238      0.2612
    189  O         -4.5510   31.1530   83.2760 O.2   238  GLY238     -0.2717
    190  N         -4.6760   29.7670   81.5350 N.am  239  PHE239     -0.1962
    191  CA        -6.1320   29.7160   81.7700 C.3   239  PHE239      0.1771
    192  C         -6.7180   28.5110   82.4700 C.2   239  PHE239      0.2619
    193  O         -6.4370   27.3690   82.1600 O.2   239  PHE239     -0.2715
    194  CB        -6.8750   29.9300   80.4720 C.3   239  PHE239      0.0574
    195  CG        -6.7880   31.3970   80.1450 C.ar  239  PHE239     -0.0200
    196  CD1       -5.6140   31.9590   79.6670 C.ar  239  PHE239     -0.0042
    197  CD2       -7.8980   32.1940   80.3730 C.ar  239  PHE239     -0.0042
    198  CE1       -5.5610   33.3190   79.4290 C.ar  239  PHE239     -0.0003
    199  CE2       -7.8350   33.5520   80.1410 C.ar  239  PHE239     -0.0003
    200  CZ        -6.6740   34.1230   79.6640 C.ar  239  PHE239     -0.0000
    201  N         -7.5320   28.7780   83.4690 N.am  240  TYR240     -0.1974
    202  CA        -7.9730   27.6600   84.2950 C.3   240  TYR240      0.1639
    203  C         -9.4670   27.5800   84.2440 C.2   240  TYR240      0.2290
    204  O        -10.1040   28.6160   84.1700 O.2   240  TYR240     -0.2864
    205  CB        -7.5540   27.8000   85.7810 C.3   240  TYR240      0.0560
    206  CG        -6.0650   27.8140   85.9460 C.ar  240  TYR240     -0.0198
    207  CD1       -5.4010   28.9470   85.6170 C.ar  240  TYR240     -0.0009
    208  CD2       -5.3430   26.7200   86.3740 C.ar  240  TYR240     -0.0009
    209  CE1       -4.0400   28.9650   85.7010 C.ar  240  TYR240      0.0417
    210  CE2       -3.9610   26.7460   86.4550 C.ar  240  TYR240      0.0417
    211  CZ        -3.2940   27.8890   86.0960 C.ar  240  TYR240      0.1957
    212  OH        -1.9060   27.9990   86.0680 O.3   240  TYR240     -0.2866
@<TRIPOS>BOND
     1    37    38    1
     2    38    39    1
     3    38    41    1
     4    39    40    2
     5    43    45   ar
     6    43    42   ar
     7    45    46   ar
     8    42    41    1
     9    42    44   ar
    10    28    27    2
    11    46    44   ar
    12    46    48   ar
    13    51    52    1
    14    71    70    2
    15    27    26    1
    16    44    47   ar
    17    36    35    1
    18    48    50   ar
    19    34    35   ar
    20    34    32   ar
    21    35    33   ar
    22    70    69    1
    23    52    53    1
    24    52    55    1
    25    32    30   ar
    26    33    31   ar
    27    53    54    2
    28    87    89    1
    29    87    86    1
    30    47    49   ar
    31    26    29    1
    32    26    25    1
    33    50    49   ar
    34    30    31   ar
    35    30    29    1
    36    55    56    1
    37   175   173   ar
    38    82    83    1
    39    83    86    1
    40    83    84    1
    41    69    72    1
    42    69    68    1
    43    86    88    1
    44    72    73    1
    45    84    85    2
    46   173   172    1
    47   173   174   ar
    48   172   171    1
    49    56    57    1
    50    78    80   ar
    51    78    75   ar
    52    60    61    1
    53    73    75   ar
    54    73    74   ar
    55    57    58    1
    56    80    81   ar
    57    75    77   ar
    58   171   168    1
    59    67    65    1
    60   116   115   ar
    61    65    66    1
    62    65    64    1
    63   168   169    1
    64   168   167    1
    65    74    76   ar
    66    61    64    1
    67    61    62    1
    68    81    79   ar
    69    58    59    1
    70   169   176   am
    71   169   170    2
    72   176   177    1
    73    77    79   ar
    74    77    76   ar
    75   117   115   ar
    76   115   114    1
    77   166   165    2
    78    18    17    2
    79   177   178    1
    80   161   162   ar
    81   161   159   ar
    82   167   165   am
    83    19    16    1
    84    19    20    1
    85    62    63    2
    86   162   160   ar
    87   165   164    1
    88   159   156   ar
    89    16    17    1
    90    16    15    1
    91   160   158   ar
    92   114   113    1
    93    22    20   ar
    94    22    24   ar
    95    20    21   ar
    96   156   158   ar
    97   156   154   ar
    98   158   157   ar
    99     8     6    1
   100   178   180   am
   101   178   179    2
   102   153   154    1
   103   153   150    1
   104   154   155   ar
   105   113   110    1
   106   164   163    1
   107   157   155   ar
   108   163   151   am
   109    24    23   ar
   110   180   181    1
   111    21    23   ar
   112   150   151    1
   113   150   149    1
   114     6     7    1
   115     6     5    1
   116   151   152    2
   117   185   108    1
   118   185   184    1
   119   110   109    1
   120   110   111    1
   121   183   182    2
   122   146   145    2
   123   181   184    1
   124   181   182    1
   125     5     2    1
   126   108   107    1
   127   198   200   ar
   128   198   196   ar
   129   109   105   am
   130     2     3    1
   131     2     1    1
   132     4     3    2
   133   135   134    1
   134   200   199   ar
   135   196   195   ar
   136   111   118   am
   137   111   112    2
   138   149   145   am
   139   145   144    1
   140   148   147    1
   141   118   119    1
   142    14    13    1
   143     3     9   am
   144   199   197   ar
   145   195   197   ar
   146   195   194    1
   147   134   131    1
   148   194   191    1
   149   105   104    1
   150   105   106    2
   151   119   120    1
   152   144   147    1
   153   144   143    1
   154   107   104    1
   155   104   103    1
   156     9    10    1
   157   190   191    1
   158   190   188   am
   159   191   192    1
   160    13    10    1
   161    97    95   ar
   162   131   130    1
   163   131   132    1
   164    10    11    1
   165   130   124   am
   166   187   188    1
   167   187   186    1
   168   193   192    2
   169   120   122   am
   170   120   121    2
   171   143   138   am
   172   101   100    2
   173   188   189    2
   174   122   123    1
   175   192   201   am
   176   103   100   am
   177   139   138    2
   178   132   133    2
   179   100    99    1
   180   138   137    1
   181    95    96   ar
   182    95    94    1
   183   124   123    1
   184   124   125    2
   185   201   202    1
   186    11    12    2
   187   141   140    1
   188   123   126    1
   189    94    91    1
   190   204   203    2
   191   126   127    1
   192   203   202    1
   193   102    99    1
   194   202   205    1
   195    99    98    1
   196   137   140    1
   197   137   136    1
   198   140   142    1
   199   128   127   ar
   200   127   129   ar
   201    98    92   am
   202    92    93    2
   203    92    91    1
   204    91    90    1
   205   207   209   ar
   206   207   206   ar
   207   209   211   ar
   208   205   206    1
   209   206   208   ar
   210   212   211    1
   211   211   210   ar
   212   208   210   ar
