@<TRIPOS>MOLECULE
tmp/1awiB00.pdb
 96 94 0 0 0
SMALL
GASTEIGER

@<TRIPOS>ATOM
      1  N         31.2960   54.0790   29.0190 N.3     1  GLY1       -0.1210
      2  CA        31.4640   52.9410   29.9760 C.3     1  GLY1        0.1956
      3  C         30.8050   53.2780   31.2920 C.2     1  GLY1        0.2611
      4  O         31.1780   54.2520   31.9360 O.2     1  GLY1       -0.2717
      5  N         29.8610   52.4470   31.7160 N.am    2  TRP2       -0.1976
      6  CA        29.1210   52.6730   32.9550 C.3     2  TRP2        0.1640
      7  C         29.9110   52.6990   34.2710 C.2     2  TRP2        0.2290
      8  O         29.4840   53.3340   35.2360 O.2     2  TRP2       -0.2864
      9  CB        27.9550   51.6840   33.0490 C.3     2  TRP2        0.0576
     10  CG        26.8960   51.9270   32.0020 C.ar    2  TRP2        0.0006
     11  CD1       26.6000   51.1280   30.9350 C.ar    2  TRP2        0.0946
     12  CD2       26.0350   53.0640   31.9010 C.ar    2  TRP2        0.0152
     13  NE1       25.6180   51.7020   30.1730 N.ar    2  TRP2       -0.2442
     14  CE2       25.2480   52.8890   30.7430 C.ar    2  TRP2        0.0810
     15  CE3       25.8580   54.2210   32.6730 C.ar    2  TRP2        0.0012
     16  CZ2       24.2960   53.8250   30.3350 C.ar    2  TRP2        0.0191
     17  CZ3       24.9130   55.1550   32.2640 C.ar    2  TRP2        0.0001
     18  CH2       24.1430   54.9510   31.1030 C.ar    2  TRP2        0.0015
     19  N         32.4550   54.2900   34.9110 N.3     4  ALA4       -0.1231
     20  CA        32.9190   55.6650   35.0970 C.3     4  ALA4        0.1694
     21  C         31.9000   56.4790   35.9010 C.2     4  ALA4        0.2592
     22  O         32.2430   57.4810   36.5400 O.2     4  ALA4       -0.2718
     23  CB        33.1600   56.3130   33.7620 C.3     4  ALA4        0.0304
     24  N         30.6370   56.0720   35.8340 N.am    5  TYR5       -0.1976
     25  CA        29.5870   56.7460   36.5840 C.3     5  TYR5        0.1639
     26  C         29.7330   56.3250   38.0340 C.2     5  TYR5        0.2290
     27  O         29.5220   57.1220   38.9420 O.2     5  TYR5       -0.2864
     28  CB        28.2100   56.3530   36.0550 C.3     5  TYR5        0.0560
     29  CG        27.8040   57.1150   34.8170 C.ar    5  TYR5       -0.0198
     30  CD1       28.5230   56.9990   33.6310 C.ar    5  TYR5       -0.0009
     31  CD2       26.7110   57.9690   34.8450 C.ar    5  TYR5       -0.0009
     32  CE1       28.1580   57.7200   32.5050 C.ar    5  TYR5        0.0417
     33  CE2       26.3360   58.6900   33.7350 C.ar    5  TYR5        0.0417
     34  CZ        27.0590   58.5660   32.5690 C.ar    5  TYR5        0.1957
     35  OH        26.6710   59.3000   31.4750 O.3     5  TYR5       -0.2866
     36  N         32.7150   58.2890   39.3830 N.3     8  ASN8       -0.1240
     37  CA        32.2780   59.6560   39.5500 C.3     8  ASN8        0.1653
     38  C         31.4130   59.7830   40.8210 C.2     8  ASN8        0.2266
     39  O         31.6790   60.6280   41.6790 O.2     8  ASN8       -0.2867
     40  CB        31.5090   60.0710   38.3020 C.3     8  ASN8        0.1155
     41  CG        30.8010   61.3870   38.4660 C.2     8  ASN8        0.2627
     42  OD1       29.5880   61.4230   38.6560 O.2     8  ASN8       -0.2716
     43  ND2       31.5480   62.4810   38.3860 N.am    8  ASN8       -0.0877
     44  N         20.7010   64.3480   40.6970 N.3   128  GLU128     -0.1231
     45  CA        21.5200   65.0160   39.6930 C.3   128  GLU128      0.1699
     46  C         22.0800   64.0360   38.6690 C.2   128  GLU128      0.2592
     47  O         22.1680   64.3520   37.4710 O.2   128  GLU128     -0.2718
     48  CB        22.5950   65.8700   40.3540 C.3   128  GLU128      0.0402
     49  CG        21.9740   67.0760   41.0620 C.3   128  GLU128      0.1161
     50  CD        22.9650   67.9290   41.8380 C.2   128  GLU128      0.3649
     51  OE1       24.0570   67.4350   42.2190 O.co2 128  GLU128     -0.2457
     52  OE2       22.6270   69.1080   42.0900 O.co2 128  GLU128     -0.2457
     53  N         22.3920   62.8270   39.1220 N.am  129  MET129     -0.1979
     54  CA        22.8770   61.8010   38.2200 C.3   129  MET129      0.1605
     55  C         21.7250   61.3550   37.3170 C.2   129  MET129      0.2287
     56  O         21.9250   61.1070   36.1300 O.2   129  MET129     -0.2864
     57  CB        23.4030   60.5990   38.9990 C.3   129  MET129      0.0413
     58  CG        23.8330   59.4570   38.1010 C.3   129  MET129      0.0598
     59  SD        24.8600   60.0630   36.7510 S.3   129  MET129     -0.1393
     60  CE        26.5610   59.9600   37.5160 C.3   129  MET129      0.0692
     61  N         20.8510   63.9600   34.5050 N.3   132  HIS132     -0.1226
     62  CA        21.8510   63.9020   33.4400 C.3   132  HIS132      0.1752
     63  C         21.5260   62.7590   32.4760 C.2   132  HIS132      0.2595
     64  O         21.5700   62.9270   31.2610 O.2   132  HIS132     -0.2718
     65  CB        23.2510   63.7000   34.0450 C.3   132  HIS132      0.0759
     66  CG        24.3100   63.3630   33.0350 C.ar  132  HIS132      0.0818
     67  ND1       24.6610   62.0650   32.7290 N.ar  132  HIS132     -0.2268
     68  CD2       25.0990   64.1540   32.2710 C.ar  132  HIS132      0.1154
     69  CE1       25.6200   62.0720   31.8230 C.ar  132  HIS132      0.1986
     70  NE2       25.9040   63.3270   31.5300 N.ar  132  HIS132     -0.2212
     71  N         21.2170   61.5940   33.0280 N.am  133  LEU133     -0.1980
     72  CA        20.8890   60.4220   32.2350 C.3   133  LEU133      0.1596
     73  C         19.6490   60.6350   31.3930 C.2   133  LEU133      0.2287
     74  O         19.6750   60.3980   30.1830 O.2   133  LEU133     -0.2864
     75  CB        20.6800   59.2120   33.1440 C.3   133  LEU133      0.0297
     76  CG        21.6780   58.0540   33.0630 C.3   133  LEU133      0.0022
     77  CD1       22.9920   58.4930   32.4600 C.3   133  LEU133      0.0001
     78  CD2       21.8830   57.4800   34.4520 C.3   133  LEU133      0.0001
     79  N         20.0630   62.4940   28.2760 N.3   136  SER136     -0.1217
     80  CA        20.7460   61.7330   27.2280 C.3   136  SER136      0.1889
     81  C         19.8450   60.6150   26.7280 C.2   136  SER136      0.2288
     82  O         20.2950   59.6910   26.0480 O.2   136  SER136     -0.2866
     83  CB        22.0330   61.1310   27.7770 C.3   136  SER136      0.2089
     84  OG        22.7920   62.1130   28.4620 O.3   136  SER136     -0.2183
     85  N         18.2730   58.3540   28.5350 N.3   138  TYR138     -0.1241
     86  CA        18.5430   57.1080   29.2350 C.3   138  TYR138      0.1605
     87  C         17.6560   56.9850   30.4730 C.2   138  TYR138      0.2264
     88  O         17.8760   56.0490   31.2580 O.2   138  TYR138     -0.2867
     89  CB        20.0240   57.0060   29.6210 C.3   138  TYR138      0.0534
     90  CG        20.8730   56.3150   28.5820 C.ar  138  TYR138     -0.0201
     91  CD1       21.4800   57.0370   27.5510 C.ar  138  TYR138     -0.0009
     92  CD2       21.0580   54.9340   28.6180 C.ar  138  TYR138     -0.0009
     93  CE1       22.2520   56.3950   26.5760 C.ar  138  TYR138      0.0417
     94  CE2       21.8310   54.2820   27.6520 C.ar  138  TYR138      0.0417
     95  CZ        22.4280   55.0170   26.6310 C.ar  138  TYR138      0.1957
     96  OH        23.2070   54.3760   25.6720 O.3   138  TYR138     -0.2866
@<TRIPOS>BOND
     1    96    95    1
     2    82    81    2
     3    93    95   ar
     4    93    91   ar
     5    95    94   ar
     6    81    80    1
     7    80    83    1
     8    80    79    1
     9    91    90   ar
    10    94    92   ar
    11    83    84    1
    12    85    86    1
    13    90    92   ar
    14    90    89    1
    15     1     2    1
    16    86    89    1
    17    86    87    1
    18     2     3    1
    19    13    14   ar
    20    13    11   ar
    21    74    73    2
    22    16    14   ar
    23    16    18   ar
    24    87    88    2
    25    14    12   ar
    26    11    10   ar
    27    18    17   ar
    28    64    63    2
    29     3     5   am
    30     3     4    2
    31    73    72    1
    32    35    34    1
    33    70    69   ar
    34    70    68   ar
    35     5     6    1
    36    69    67   ar
    37    12    10   ar
    38    12    15   ar
    39    10     9    1
    40    72    71    1
    41    72    75    1
    42    17    15   ar
    43    68    66   ar
    44    77    76    1
    45    63    71   am
    46    63    62    1
    47    32    34   ar
    48    32    30   ar
    49    34    33   ar
    50    67    66   ar
    51     6     9    1
    52     6     7    1
    53    66    65    1
    54    76    75    1
    55    76    78    1
    56    62    65    1
    57    62    61    1
    58    30    29   ar
    59    33    31   ar
    60    23    20    1
    61     7     8    2
    62    29    31   ar
    63    29    28    1
    64    19    20    1
    65    20    21    1
    66    24    21   am
    67    24    25    1
    68    21    22    2
    69    28    25    1
    70    56    55    2
    71    25    26    1
    72    59    60    1
    73    59    58    1
    74    55    54    1
    75    47    46    2
    76    26    27    2
    77    58    57    1
    78    54    57    1
    79    54    53    1
    80    40    41    1
    81    40    37    1
    82    43    41   am
    83    41    42    2
    84    46    53   am
    85    46    45    1
    86    36    37    1
    87    37    38    1
    88    45    48    1
    89    45    44    1
    90    48    49    1
    91    38    39    2
    92    49    50    1
    93    50    52   ar
    94    50    51   ar
