@<TRIPOS>MOLECULE
tmp/1awvE00.pdb
 164 158 0 0 0
SMALL
GASTEIGER

@<TRIPOS>ATOM
      1  N         56.6470   47.5320  122.4030 N.3    53  HIS53      -0.1226
      2  CA        56.8110   46.8060  121.1500 C.3    53  HIS53       0.1752
      3  C         57.9740   47.2780  120.2850 C.2    53  HIS53       0.2595
      4  O         58.5310   46.4950  119.5160 O.2    53  HIS53      -0.2718
      5  CB        55.5240   46.8810  120.3380 C.3    53  HIS53       0.0759
      6  CG        55.1020   48.2810  120.0070 C.ar   53  HIS53       0.0818
      7  ND1       54.3670   49.0640  120.8730 N.ar   53  HIS53      -0.2268
      8  CD2       55.3330   49.0440  118.9120 C.ar   53  HIS53       0.1154
      9  CE1       54.1620   50.2490  120.3260 C.ar   53  HIS53       0.1986
     10  NE2       54.7390   50.2630  119.1370 N.ar   53  HIS53      -0.2212
     11  N         58.3730   48.5360  120.4430 N.am   54  ARG54      -0.1980
     12  CA        59.4420   49.0710  119.6200 C.3    54  ARG54       0.1597
     13  C         60.5070   49.7880  120.4380 C.2    54  ARG54       0.2287
     14  O         60.2800   50.8870  120.9490 O.2    54  ARG54      -0.2864
     15  CB        58.8260   50.0020  118.5580 C.3    54  ARG54       0.0334
     16  CG        59.7710   50.4930  117.4800 C.3    54  ARG54       0.0492
     17  CD        59.0220   51.1920  116.3340 C.3    54  ARG54       0.2205
     18  NE        59.9580   51.7350  115.3590 N.pl3  54  ARG54      -0.0865
     19  CZ        60.1680   53.0310  115.1670 C.cat  54  ARG54       0.5346
     20  NH1       59.4820   53.9380  115.8710 N.pl3  54  ARG54       0.1354
     21  NH2       61.1390   53.4180  114.3400 N.pl3  54  ARG54       0.1354
     22  N         64.4550   50.9150  120.0780 N.3    56  ILE56      -0.1245
     23  CA        65.6310   51.0580  119.2390 C.3    56  ILE56       0.1561
     24  C         66.7600   51.6890  120.0550 C.2    56  ILE56       0.2260
     25  O         66.6930   52.8660  120.4240 O.2    56  ILE56      -0.2867
     26  CB        65.3220   51.9200  117.9840 C.3    56  ILE56       0.0252
     27  CG1       64.1260   51.3190  117.2330 C.3    56  ILE56       0.0019
     28  CG2       66.5490   51.9930  117.0610 C.3    56  ILE56       0.0019
     29  CD1       63.7060   52.0690  115.9770 C.3    56  ILE56       0.0001
     30  N         68.1720   55.3710  120.3330 N.3    59  PHE59      -0.1227
     31  CA        67.0830   56.2280  119.8640 C.3    59  PHE59       0.1736
     32  C         65.9650   56.4330  120.8920 C.2    59  PHE59       0.2595
     33  O         65.8340   57.5120  121.4740 O.2    59  PHE59      -0.2718
     34  CB        66.4850   55.6480  118.5880 C.3    59  PHE59       0.0547
     35  CG        65.4390   56.5170  117.9500 C.ar   59  PHE59      -0.0202
     36  CD1       65.4760   57.9040  118.0910 C.ar   59  PHE59      -0.0042
     37  CD2       64.4190   55.9500  117.1990 C.ar   59  PHE59      -0.0042
     38  CE1       64.5090   58.7130  117.4910 C.ar   59  PHE59      -0.0003
     39  CE2       63.4510   56.7530  116.5980 C.ar   59  PHE59      -0.0003
     40  CZ        63.4970   58.1370  116.7450 C.ar   59  PHE59      -0.0000
     41  N         65.1340   55.4090  121.0740 N.am   60  MET60      -0.1979
     42  CA        64.0270   55.4900  122.0100 C.3    60  MET60       0.1605
     43  C         63.3630   54.1650  122.2710 C.2    60  MET60       0.2287
     44  O         63.7240   53.1610  121.6880 O.2    60  MET60      -0.2864
     45  CB        62.9850   56.5070  121.5340 C.3    60  MET60       0.0413
     46  CG        62.4640   56.3140  120.0950 C.3    60  MET60       0.0598
     47  SD        61.1260   55.1360  119.9000 S.3    60  MET60      -0.1393
     48  CE        61.9030   53.8090  119.0020 C.3    60  MET60       0.0692
     49  N         59.4460   52.7600  122.6060 N.3    62  GLN62      -0.1245
     50  CA        58.0740   53.1410  122.3010 C.3    62  GLN62       0.1566
     51  C         57.0750   52.1670  122.8630 C.2    62  GLN62       0.2260
     52  O         57.3040   50.9720  122.8630 O.2    62  GLN62      -0.2867
     53  CB        57.9030   53.2510  120.7770 C.3    62  GLN62       0.0367
     54  CG        56.5180   53.6950  120.3070 C.3    62  GLN62       0.0905
     55  CD        56.3820   53.7720  118.7870 C.2    62  GLN62       0.2608
     56  OE1       57.3310   54.0970  118.0750 O.2    62  GLN62      -0.2717
     57  NE2       55.1850   53.4830  118.2950 N.am   62  GLN62      -0.0878
     58  N         51.0720   46.4980  118.6110 N.3    70  ASN70      -0.1225
     59  CA        52.1300   46.5570  117.6010 C.3    70  ASN70       0.1785
     60  C         52.3030   47.8690  116.8470 C.2    70  ASN70       0.2598
     61  O         52.9430   47.9000  115.8010 O.2    70  ASN70      -0.2718
     62  CB        51.9510   45.4260  116.5970 C.3    70  ASN70       0.1169
     63  CG        50.6520   45.5310  115.8300 C.2    70  ASN70       0.2627
     64  OD1       49.8180   46.4030  116.1080 O.2    70  ASN70      -0.2716
     65  ND2       50.4660   44.6340  114.8620 N.am   70  ASN70      -0.0877
     66  N         51.7530   48.9520  117.3870 N.am   71  GLY71      -0.1942
     67  CA        51.8740   50.2500  116.7360 C.3    71  GLY71       0.2014
     68  C         50.6790   50.5800  115.8620 C.2    71  GLY71       0.2639
     69  O         50.7130   51.5280  115.0710 O.2    71  GLY71      -0.2714
     70  N         49.5990   49.8290  116.0510 N.am   72  THR72      -0.1950
     71  CA        48.3770   50.0040  115.2580 C.3    72  THR72       0.1897
     72  C         47.2220   50.5470  116.1170 C.2    72  THR72       0.2313
     73  O         46.2440   51.1000  115.5960 O.2    72  THR72      -0.2863
     74  CB        47.9230   48.6370  114.6200 C.3    72  THR72       0.1794
     75  OG1       49.0590   47.9210  114.1310 O.3    72  THR72      -0.2208
     76  CG2       46.9840   48.8740  113.4560 C.3    72  THR72       0.0378
     77  N         53.9850   59.7020  120.3380 N.3   100  ALA100     -0.1231
     78  CA        54.2250   59.0410  119.0680 C.3   100  ALA100      0.1694
     79  C         52.9970   59.3580  118.1870 C.2   100  ALA100      0.2592
     80  O         51.8990   59.6580  118.7100 O.2   100  ALA100     -0.2718
     81  CB        54.3800   57.5570  119.2780 C.3   100  ALA100      0.0304
     82  N         53.1780   59.3480  116.8690 N.am  101  ASN101     -0.1960
     83  CA        52.0720   59.6410  115.9710 C.3   101  ASN101      0.1819
     84  C         52.2900   59.1860  114.5270 C.2   101  ASN101      0.2621
     85  O         53.3710   58.7060  114.1680 O.2   101  ASN101     -0.2715
     86  CB        51.7140   61.1440  116.0310 C.3   101  ASN101      0.1195
     87  CG        52.8070   62.0400  115.4820 C.2   101  ASN101      0.2630
     88  OD1       53.4700   61.6870  114.5140 O.2   101  ASN101     -0.2716
     89  ND2       52.9800   63.2230  116.0870 N.am  101  ASN101     -0.0877
     90  N         51.2270   59.2720  113.7320 N.am  102  ALA102     -0.1977
     91  CA        51.2700   58.9200  112.3070 C.3   102  ALA102      0.1597
     92  C         51.0290   60.2230  111.5340 C.2   102  ALA102      0.2287
     93  O         50.1610   60.3000  110.6570 O.2   102  ALA102     -0.2864
     94  CB        50.2070   57.8870  111.9750 C.3   102  ALA102      0.0319
     95  N         47.4230   63.4500  115.2460 N.3   106  THR106     -0.1218
     96  CA        47.0560   62.0560  115.3940 C.3   106  THR106      0.1862
     97  C         47.5550   61.4700  116.7140 C.2   106  THR106      0.2287
     98  O         47.9960   60.3230  116.7690 O.2   106  THR106     -0.2866
     99  CB        47.5800   61.2050  114.1790 C.3   106  THR106      0.1770
    100  OG1       48.9990   61.3040  114.0910 O.3   106  THR106     -0.2211
    101  CG2       46.9870   61.7070  112.8750 C.3   106  THR106      0.0375
    102  N         50.0090   56.2250  122.2780 N.3   110  GLN110     -0.1245
    103  CA        51.3750   55.7850  122.1040 C.3   110  GLN110      0.1566
    104  C         52.3300   56.9220  122.4060 C.2   110  GLN110      0.2260
    105  O         52.0390   58.0960  122.1770 O.2   110  GLN110     -0.2867
    106  CB        51.5900   55.1980  120.7140 C.3   110  GLN110      0.0367
    107  CG        50.8260   53.8950  120.5220 C.3   110  GLN110      0.0905
    108  CD        51.2600   53.0990  119.3110 C.2   110  GLN110      0.2608
    109  OE1       52.4530   53.0020  119.0010 O.2   110  GLN110     -0.2717
    110  NE2       50.2900   52.4840  118.6410 N.am  110  GLN110     -0.0878
    111  N         56.8820   57.6870  123.4440 N.3   112  PHE112     -0.1241
    112  CA        58.2290   57.1710  123.4530 C.3   112  PHE112      0.1605
    113  C         59.0810   57.9420  124.4540 C.2   112  PHE112      0.2264
    114  O         58.7610   59.0760  124.8140 O.2   112  PHE112     -0.2867
    115  CB        58.8540   57.1230  122.0480 C.3   112  PHE112      0.0534
    116  CG        59.0260   58.4620  121.4040 C.ar  112  PHE112     -0.0203
    117  CD1       57.9520   59.1010  120.7790 C.ar  112  PHE112     -0.0042
    118  CD2       60.2820   59.0770  121.3780 C.ar  112  PHE112     -0.0042
    119  CE1       58.1390   60.3230  120.1410 C.ar  112  PHE112     -0.0003
    120  CE2       60.4620   60.2830  120.7500 C.ar  112  PHE112     -0.0003
    121  CZ        59.3960   60.9120  120.1270 C.ar  112  PHE112     -0.0000
    122  N         65.5490   66.1380  115.6010 N.3   120  TRP120     -0.1227
    123  CA        64.8520   66.1300  114.3160 C.3   120  TRP120      0.1737
    124  C         63.3640   65.8650  114.4870 C.2   120  TRP120      0.2595
    125  O         62.5720   66.0990  113.5730 O.2   120  TRP120     -0.2718
    126  CB        65.4910   65.1570  113.3000 C.3   120  TRP120      0.0564
    127  CG        65.5380   63.7530  113.7380 C.ar  120  TRP120      0.0003
    128  CD1       64.6610   62.7640  113.4110 C.ar  120  TRP120      0.0946
    129  CD2       66.4720   63.1760  114.6590 C.ar  120  TRP120      0.0152
    130  NE1       64.9800   61.6030  114.0810 N.ar  120  TRP120     -0.2442
    131  CE2       66.0910   61.8290  114.8520 C.ar  120  TRP120      0.0810
    132  CE3       67.5920   63.6680  115.3460 C.ar  120  TRP120      0.0012
    133  CZ2       66.7940   60.9660  115.7050 C.ar  120  TRP120      0.0191
    134  CZ3       68.2880   62.8020  116.1960 C.ar  120  TRP120      0.0001
    135  CH2       67.8840   61.4700  116.3640 C.ar  120  TRP120      0.0015
    136  N         62.9770   65.4470  115.6850 N.am  121  LEU121     -0.1980
    137  CA        61.5810   65.1650  115.9810 C.3   121  LEU121      0.1596
    138  C         60.8980   66.4360  116.4280 C.2   121  LEU121      0.2287
    139  O         59.6840   66.4820  116.5520 O.2   121  LEU121     -0.2864
    140  CB        61.4870   64.1140  117.0850 C.3   121  LEU121      0.0297
    141  CG        62.3460   62.8700  116.8610 C.3   121  LEU121      0.0022
    142  CD1       62.1400   61.9000  118.0160 C.3   121  LEU121      0.0001
    143  CD2       61.9520   62.2220  115.5300 C.3   121  LEU121      0.0001
    144  N         56.7440   66.0250  116.9020 N.3   125  HIS125     -0.1241
    145  CA        56.1690   65.3030  118.0140 C.3   125  HIS125      0.1621
    146  C         56.0620   66.1900  119.2410 C.2   125  HIS125      0.2264
    147  O         56.9600   66.9600  119.5380 O.2   125  HIS125     -0.2867
    148  CB        57.0270   64.0790  118.3160 C.3   125  HIS125      0.0745
    149  CG        56.9820   63.0270  117.2510 C.ar  125  HIS125      0.0817
    150  ND1       56.1150   61.9560  117.2960 N.ar  125  HIS125     -0.2268
    151  CD2       57.7150   62.8640  116.1270 C.ar  125  HIS125      0.1154
    152  CE1       56.3160   61.1810  116.2490 C.ar  125  HIS125      0.1986
    153  NE2       57.2830   61.7090  115.5240 N.ar  125  HIS125     -0.2212
    154  N         68.5670   47.1110  116.3740 N.3   147  ARG147     -0.1245
    155  CA        68.9000   48.0650  115.3200 C.3   147  ARG147      0.1563
    156  C         67.5860   48.2990  114.5860 C.2   147  ARG147      0.2260
    157  O         67.2580   49.4230  114.1990 O.2   147  ARG147     -0.2867
    158  CB        69.8910   47.4100  114.3520 C.3   147  ARG147      0.0307
    159  CG        70.8730   48.3550  113.7240 C.3   147  ARG147      0.0489
    160  CD        71.6080   49.0830  114.8020 C.3   147  ARG147      0.2205
    161  NE        71.3090   50.5110  114.7970 N.pl3 147  ARG147     -0.0865
    162  CZ        71.0000   51.2180  115.8830 C.cat 147  ARG147      0.5346
    163  NH1       70.9220   50.6190  117.0780 N.pl3 147  ARG147      0.1354
    164  NH2       70.7600   52.5230  115.7720 N.pl3 147  ARG147      0.1354
@<TRIPOS>BOND
     1    93    92    2
     2    92    91    1
     3    94    91    1
     4    91    90    1
     5   101    99    1
     6   126   127    1
     7   126   123    1
     8   128   127   ar
     9   128   130   ar
    10    76    74    1
    11   125   124    2
    12   159   158    1
    13   159   160    1
    14    90    84   am
    15   127   129   ar
    16   130   131   ar
    17   100    99    1
    18    75    74    1
    19    85    84    2
    20    99    96    1
    21   157   156    2
    22   123   124    1
    23   123   122    1
    24    21    19    1
    25   158   155    1
    26   124   136   am
    27    88    87    2
    28    84    83    1
    29   156   155    1
    30    74    71    1
    31   129   131   ar
    32   129   132   ar
    33   161   160    1
    34   161   162    2
    35   131   133   ar
    36    65    63   am
    37    69    68    2
    38    19    18    2
    39    19    20    1
    40    95    96    1
    41    71    70    1
    42    71    72    1
    43   155   154    1
    44   132   134   ar
    45    18    17    1
    46    96    97    1
    47    87    86    1
    48    87    89   am
    49   153   151   ar
    50   153   152   ar
    51   143   141    1
    52    73    72    2
    53   136   137    1
    54   133   135   ar
    55   164   162    1
    56    61    60    2
    57    63    64    2
    58    63    62    1
    59    68    70   am
    60    68    67    1
    61   162   163    1
    62    83    86    1
    63    83    82    1
    64    29    27    1
    65   137   138    1
    66   137   140    1
    67   151   149   ar
    68   134   135   ar
    69   152   150   ar
    70    17    16    1
    71   138   139    2
    72    62    59    1
    73    39    40   ar
    74    39    37   ar
    75    97    98    2
    76    67    66    1
    77    40    38   ar
    78    60    66   am
    79    60    59    1
    80   141   140    1
    81   141   142    1
    82    82    79   am
    83   144   145    1
    84    28    26    1
    85    37    35   ar
    86    27    26    1
    87   149   150   ar
    88   149   148    1
    89    16    15    1
    90    38    36   ar
    91    59    58    1
    92    35    36   ar
    93    35    34    1
    94    26    23    1
    95   145   148    1
    96   145   146    1
    97    56    55    2
    98    79    80    2
    99    79    78    1
   100    57    55   am
   101    15    12    1
   102    34    31    1
   103   110   108   am
   104    55    54    1
   105     8    10   ar
   106     8     6   ar
   107   109   108    2
   108    48    47    1
   109    78    81    1
   110    78    77    1
   111    10     9   ar
   112    23    24    1
   113    23    22    1
   114   146   147    2
   115   108   107    1
   116     4     3    2
   117    12    13    1
   118    12    11    1
   119    31    30    1
   120    31    32    1
   121    47    46    1
   122     6     5    1
   123     6     7   ar
   124    24    25    2
   125    46    45    1
   126   121   119   ar
   127   121   120   ar
   128   119   117   ar
   129     3    11   am
   130     3     2    1
   131    54    53    1
   132     9     7   ar
   133     5     2    1
   134    13    14    2
   135   107   106    1
   136   106   103    1
   137   120   118   ar
   138    53    50    1
   139   117   116   ar
   140    32    41   am
   141    32    33    2
   142    41    42    1
   143     2     1    1
   144   118   116   ar
   145   116   115    1
   146    45    42    1
   147    44    43    2
   148    42    43    1
   149   115   112    1
   150   103   102    1
   151   103   104    1
   152   105   104    2
   153    50    49    1
   154    50    51    1
   155    51    52    2
   156   111   112    1
   157   112   113    1
   158   113   114    2
