@<TRIPOS>MOLECULE
tmp/1ax2A01.pdb
 100 97 0 0 0
SMALL
GASTEIGER

@<TRIPOS>ATOM
      1  N         16.3320  -12.5950   40.3530 N.3    85  PRO85      -0.2102
      2  CA        15.9620  -11.2420   40.7860 C.3    85  PRO85       0.1504
      3  C         14.5100  -10.9430   40.4280 C.2    85  PRO85       0.2575
      4  O         13.8390  -11.7680   39.8000 O.2    85  PRO85      -0.2718
      5  CB        16.9170  -10.3660   39.9820 C.3    85  PRO85       0.0282
      6  CG        17.0430  -11.1160   38.7020 C.3    85  PRO85       0.0208
      7  CD        17.2160  -12.5390   39.1730 C.3    85  PRO85       0.0893
      8  N         14.0190   -9.7820   40.8460 N.am   86  LEU86      -0.1980
      9  CA        12.6420   -9.3950   40.5470 C.3    86  LEU86       0.1596
     10  C         12.4650   -9.2830   39.0370 C.2    86  LEU86       0.2287
     11  O         13.3600   -8.8040   38.3370 O.2    86  LEU86      -0.2864
     12  CB        12.3040   -8.0490   41.1940 C.3    86  LEU86       0.0297
     13  CG        12.4740   -7.9500   42.7130 C.3    86  LEU86       0.0022
     14  CD1       12.1630   -6.5300   43.1670 C.3    86  LEU86       0.0001
     15  CD2       11.5760   -8.9590   43.4230 C.3    86  LEU86       0.0001
     16  N         10.9910   -8.0260   35.2980 N.3    88  ALA88      -0.1231
     17  CA        10.8360   -6.7010   34.7100 C.3    88  ALA88       0.1694
     18  C         10.6880   -6.8780   33.1970 C.2    88  ALA88       0.2592
     19  O         10.9890   -7.9550   32.6920 O.2    88  ALA88      -0.2718
     20  CB        12.0770   -5.8730   35.0310 C.3    88  ALA88       0.0304
     21  N         10.1990   -5.8720   32.4650 N.am   89  ASP89      -0.1974
     22  CA         9.7720   -4.5700   32.9820 C.3    89  ASP89       0.1709
     23  C          8.2890   -4.3200   32.7160 C.2    89  ASP89       0.2293
     24  O          7.6610   -3.4950   33.3880 O.2    89  ASP89      -0.2864
     25  CB        10.5810   -3.4430   32.3400 C.3    89  ASP89       0.1436
     26  CG        11.8130   -3.0900   33.1360 C.2    89  ASP89       0.3671
     27  OD1       11.6710   -2.4110   34.1770 O.co2  89  ASP89      -0.2456
     28  OD2       12.9180   -3.4980   32.7270 O.co2  89  ASP89      -0.2456
     29  N         13.9360   -1.2420   29.0760 N.3   106  TYR106     -0.1227
     30  CA        13.7950   -1.3620   30.5220 C.3   106  TYR106      0.1736
     31  C         12.5300   -0.6730   31.0320 C.2   106  TYR106      0.2596
     32  O         11.4550   -0.8330   30.4470 O.2   106  TYR106     -0.2718
     33  CB        15.0400   -0.8160   31.2390 C.3   106  TYR106      0.0548
     34  CG        16.3410   -1.2960   30.6420 C.ar  106  TYR106     -0.0200
     35  CD1       16.5480   -2.6450   30.3580 C.ar  106  TYR106     -0.0009
     36  CD2       17.3540   -0.3950   30.3320 C.ar  106  TYR106     -0.0009
     37  CE1       17.7270   -3.0790   29.7800 C.ar  106  TYR106      0.0417
     38  CE2       18.5340   -0.8190   29.7550 C.ar  106  TYR106      0.0417
     39  CZ        18.7160   -2.1590   29.4830 C.ar  106  TYR106      0.1957
     40  OH        19.9030   -2.5720   28.9310 O.3   106  TYR106     -0.2866
     41  N         12.6740    0.0860   32.1190 N.am  107  GLY107     -0.1957
     42  CA        11.5580    0.7890   32.7260 C.3   107  GLY107      0.1869
     43  C         10.8810    1.8080   31.8330 C.2   107  GLY107      0.2309
     44  O          9.7800    2.2600   32.1470 O.2   107  GLY107     -0.2863
     45  N          7.6870   -3.8450   37.1880 N.3   131  PHE131     -0.1241
     46  CA         8.8300   -3.5000   38.0270 C.3   131  PHE131      0.1605
     47  C          8.7000   -2.0850   38.5600 C.2   131  PHE131      0.2264
     48  O          8.4780   -1.1470   37.8030 O.2   131  PHE131     -0.2867
     49  CB        10.1450   -3.6420   37.2550 C.3   131  PHE131      0.0534
     50  CG        11.3660   -3.3630   38.0910 C.ar  131  PHE131     -0.0203
     51  CD1       11.9530   -4.3760   38.8430 C.ar  131  PHE131     -0.0042
     52  CD2       11.9030   -2.0780   38.1580 C.ar  131  PHE131     -0.0042
     53  CE1       13.0520   -4.1150   39.6510 C.ar  131  PHE131     -0.0003
     54  CE2       13.0030   -1.8020   38.9650 C.ar  131  PHE131     -0.0003
     55  CZ        13.5790   -2.8230   39.7140 C.ar  131  PHE131     -0.0000
     56  N         10.0480    1.1800   39.4900 N.3   133  ASN133     -0.1240
     57  CA        11.1560    2.1220   39.3130 C.3   133  ASN133      0.1653
     58  C         10.9620    3.2570   40.3290 C.2   133  ASN133      0.2266
     59  O          9.9230    3.3350   40.9810 O.2   133  ASN133     -0.2867
     60  CB        11.1420    2.6750   37.8870 C.3   133  ASN133      0.1155
     61  CG        11.4050    1.6080   36.8470 C.2   133  ASN133      0.2627
     62  OD1       10.4800    1.0100   36.3070 O.2   133  ASN133     -0.2716
     63  ND2       12.6740    1.3700   36.5520 N.am  133  ASN133     -0.0877
     64  N         10.1720    6.2210   39.9090 N.3   135  TRP135     -0.1241
     65  CA         9.0460    7.0760   39.5350 C.3   135  TRP135      0.1605
     66  C          7.7030    6.3430   39.6680 C.2   135  TRP135      0.2264
     67  O          6.6420    6.9350   39.4760 O.2   135  TRP135     -0.2867
     68  CB         9.2140    7.5770   38.1000 C.3   135  TRP135      0.0550
     69  CG         9.3370    6.4760   37.0950 C.ar  135  TRP135      0.0003
     70  CD1        8.3320    5.6830   36.6150 C.ar  135  TRP135      0.0946
     71  CD2       10.5340    6.0420   36.4480 C.ar  135  TRP135      0.0152
     72  NE1        8.8320    4.7810   35.7100 N.ar  135  TRP135     -0.2442
     73  CE2       10.1810    4.9810   35.5850 C.ar  135  TRP135      0.0810
     74  CE3       11.8720    6.4480   36.5100 C.ar  135  TRP135      0.0012
     75  CZ2       11.1200    4.3180   34.7880 C.ar  135  TRP135      0.0191
     76  CZ3       12.8070    5.7900   35.7190 C.ar  135  TRP135      0.0001
     77  CH2       12.4240    4.7350   34.8690 C.ar  135  TRP135      0.0015
     78  N         14.2090   -6.6560   31.8200 N.3   217  GLY217     -0.1210
     79  CA        15.1740   -5.9480   32.6500 C.3   217  GLY217      0.1956
     80  C         16.6200   -5.6670   32.2780 C.2   217  GLY217      0.2612
     81  O         17.1950   -6.2780   31.3700 O.2   217  GLY217     -0.2717
     82  N         17.2180   -4.7780   33.0760 N.am  218  ALA218     -0.1965
     83  CA        18.5990   -4.3220   32.9150 C.3   218  ALA218      0.1728
     84  C         19.6840   -5.2150   33.5260 C.2   218  ALA218      0.2616
     85  O         20.8660   -4.8870   33.4370 O.2   218  ALA218     -0.2715
     86  CB        18.7390   -2.8990   33.4420 C.3   218  ALA218      0.0334
     87  N         19.2990   -6.3120   34.1730 N.am  219  GLN219     -0.1977
     88  CA        20.2880   -7.2240   34.7510 C.3   219  GLN219      0.1601
     89  C         19.9150   -8.6770   34.4740 C.2   219  GLN219      0.2287
     90  O         18.7560   -8.9890   34.1920 O.2   219  GLN219     -0.2864
     91  CB        20.4890   -6.9790   36.2530 C.3   219  GLN219      0.0394
     92  CG        19.3170   -7.3560   37.1220 C.3   219  GLN219      0.0908
     93  CD        19.6210   -7.1960   38.5940 C.2   219  GLN219      0.2608
     94  OE1       19.9410   -8.1670   39.2820 O.2   219  GLN219     -0.2717
     95  NE2       19.5190   -5.9690   39.0910 N.am  219  GLN219     -0.0878
     96  N         16.4420  -10.7270   35.0830 N.3   222  ALA222     -0.1245
     97  CA        15.3530   -9.8480   35.5140 C.3   222  ALA222      0.1562
     98  C         14.5210   -9.8290   34.2400 C.2   222  ALA222      0.2260
     99  O         14.6490   -8.9250   33.4120 O.2   222  ALA222     -0.2867
    100  CB        15.8740   -8.4470   35.8410 C.3   222  ALA222      0.0290
@<TRIPOS>BOND
     1    40    39    1
     2    29    30    1
     3    39    38   ar
     4    39    37   ar
     5    38    36   ar
     6    37    35   ar
     7    36    34   ar
     8    35    34   ar
     9    32    31    2
    10    30    31    1
    11    30    33    1
    12    34    33    1
    13    31    41   am
    14    81    80    2
    15    78    79    1
    16    43    44    2
    17    43    42    1
    18    41    42    1
    19    80    79    1
    20    80    82   am
    21    25    22    1
    22    25    26    1
    23    21    22    1
    24    21    18   am
    25    19    18    2
    26    23    22    1
    27    23    24    2
    28    28    26   ar
    29    83    82    1
    30    83    86    1
    31    83    84    1
    32    26    27   ar
    33    18    17    1
    34    99    98    2
    35    85    84    2
    36    84    87   am
    37    87    88    1
    38    90    89    2
    39    98    97    1
    40    89    88    1
    41    17    20    1
    42    17    16    1
    43    88    91    1
    44    75    77   ar
    45    75    73   ar
    46    77    76   ar
    47    96    97    1
    48    97   100    1
    49    73    72   ar
    50    73    71   ar
    51    72    70   ar
    52    76    74   ar
    53    91    92    1
    54    62    61    2
    55    71    74   ar
    56    71    69   ar
    57    63    61   am
    58    70    69   ar
    59    61    60    1
    60    69    68    1
    61    92    93    1
    62    45    46    1
    63    49    46    1
    64    49    50    1
    65    48    47    2
    66    60    57    1
    67    46    47    1
    68    50    52   ar
    69    50    51   ar
    70    68    65    1
    71    52    54   ar
    72    11    10    2
    73    93    95   am
    74    93    94    2
    75     6     7    1
    76     6     5    1
    77    51    53   ar
    78    54    55   ar
    79    10     9    1
    80     7     1    1
    81    57    56    1
    82    57    58    1
    83    67    66    2
    84    65    66    1
    85    65    64    1
    86    53    55   ar
    87     4     3    2
    88     5     2    1
    89    58    59    2
    90     1     2    1
    91     3     2    1
    92     3     8   am
    93     9     8    1
    94     9    12    1
    95    12    13    1
    96    13    14    1
    97    13    15    1
