@<TRIPOS>MOLECULE
tmp/1ax9A00.pdb
 163 164 0 0 0
SMALL
GASTEIGER

@<TRIPOS>ATOM
      1  N          0.2670   74.3110   65.0880 N.3    81  TRP81      -0.1241
      2  CA         0.0470   73.1210   64.2850 C.3    81  TRP81       0.1605
      3  C         -1.3900   72.6420   64.4440 C.2    81  TRP81       0.2264
      4  O         -1.8070   71.7740   63.6830 O.2    81  TRP81      -0.2867
      5  CB         0.9770   71.9720   64.6800 C.3    81  TRP81       0.0550
      6  CG         2.4060   72.4260   64.6710 C.ar   81  TRP81       0.0003
      7  CD1        3.1660   72.7940   65.7370 C.ar   81  TRP81       0.0946
      8  CD2        3.2060   72.6160   63.4990 C.ar   81  TRP81       0.0152
      9  NE1        4.4100   73.1810   65.3010 N.ar   81  TRP81      -0.2442
     10  CE2        4.4610   73.0800   63.9340 C.ar   81  TRP81       0.0810
     11  CE3        2.9820   72.4320   62.1330 C.ar   81  TRP81       0.0012
     12  CZ2        5.5000   73.3560   63.0470 C.ar   81  TRP81       0.0191
     13  CZ3        4.0150   72.6980   61.2570 C.ar   81  TRP81       0.0001
     14  CH2        5.2580   73.1550   61.7210 C.ar   81  TRP81       0.0015
     15  N          2.1890   67.4450   56.9530 N.3   114  GLY114     -0.1210
     16  CA         2.6160   66.3750   57.8400 C.3   114  GLY114      0.1956
     17  C          1.6690   66.2570   59.0300 C.2   114  GLY114      0.2612
     18  O          0.6140   66.8860   59.0290 O.2   114  GLY114     -0.2717
     19  N          2.0420   65.4610   60.0210 N.am  115  GLY115     -0.1942
     20  CA         1.2320   65.2490   61.2140 C.3   115  GLY115      0.2014
     21  C          1.1590   63.7770   61.6010 C.2   115  GLY115      0.2639
     22  O          0.1390   63.2890   62.0870 O.2   115  GLY115     -0.2714
     23  N          2.2240   63.0160   61.3710 N.am  116  GLY116     -0.1954
     24  CA         2.2710   61.6020   61.6890 C.3   116  GLY116      0.1869
     25  C          1.0160   60.8620   61.2550 C.2   116  GLY116      0.2309
     26  O          0.6430   59.8440   61.8380 O.2   116  GLY116     -0.2863
     27  N         -1.9640   61.4060   61.7860 N.3   118  TYR118     -0.1227
     28  CA        -3.1090   61.5650   62.6730 C.3   118  TYR118      0.1736
     29  C         -3.5860   63.0100   62.7110 C.2   118  TYR118      0.2596
     30  O         -4.6690   63.2890   63.2300 O.2   118  TYR118     -0.2718
     31  CB        -2.7440   61.0660   64.0740 C.3   118  TYR118      0.0548
     32  CG        -1.7140   61.9250   64.7780 C.ar  118  TYR118     -0.0200
     33  CD1       -2.0960   63.0370   65.5180 C.ar  118  TYR118     -0.0009
     34  CD2       -0.3620   61.6220   64.7070 C.ar  118  TYR118     -0.0009
     35  CE1       -1.1690   63.8290   66.1710 C.ar  118  TYR118      0.0417
     36  CE2        0.5710   62.4080   65.3540 C.ar  118  TYR118      0.0417
     37  CZ         0.1700   63.5080   66.0880 C.ar  118  TYR118      0.1957
     38  OH         1.1120   64.2820   66.7280 O.3   118  TYR118     -0.2866
     39  N         -2.8050   63.9420   62.1800 N.am  119  SER119     -0.1952
     40  CA        -3.1920   65.3450   62.1940 C.3   119  SER119      0.1924
     41  C         -2.6890   66.0870   60.9670 C.2   119  SER119      0.2314
     42  O         -2.0080   65.4870   60.1400 O.2   119  SER119     -0.2863
     43  CB        -2.6420   66.0460   63.4350 C.3   119  SER119      0.2116
     44  OG        -1.2430   65.8570   63.5490 O.3   119  SER119     -0.2180
     45  N          1.6200   77.2900   56.5700 N.3   127  TYR127     -0.1241
     46  CA         1.4440   76.7170   55.2390 C.3   127  TYR127      0.1605
     47  C          0.8540   77.7420   54.2790 C.2   127  TYR127      0.2264
     48  O          0.3580   77.3950   53.2080 O.2   127  TYR127     -0.2867
     49  CB         0.5670   75.4750   55.3170 C.3   127  TYR127      0.0534
     50  CG         1.0880   74.3220   56.1410 C.ar  127  TYR127     -0.0201
     51  CD1        2.4380   74.0890   56.3600 C.ar  127  TYR127     -0.0009
     52  CD2        0.1790   73.4300   56.7070 C.ar  127  TYR127     -0.0009
     53  CE1        2.8650   73.0170   57.1220 C.ar  127  TYR127      0.0417
     54  CE2        0.5950   72.3570   57.4680 C.ar  127  TYR127      0.0417
     55  CZ         1.9410   72.1550   57.6730 C.ar  127  TYR127      0.1957
     56  OH         2.3420   71.0800   58.4290 O.3   127  TYR127     -0.2866
     57  N          6.1970   67.4800   54.3430 N.3   196  GLU196     -0.1231
     58  CA         7.0480   67.2810   55.5030 C.3   196  GLU196      0.1699
     59  C          6.5480   66.1380   56.3690 C.2   196  GLU196      0.2592
     60  O          5.3520   65.9470   56.5730 O.2   196  GLU196     -0.2718
     61  CB         7.0980   68.5770   56.3110 C.3   196  GLU196      0.0402
     62  CG         8.1830   68.5840   57.3750 C.3   196  GLU196      0.1161
     63  CD         7.6520   68.2460   58.7540 C.2   196  GLU196      0.3649
     64  OE1        6.4210   68.1990   58.9410 O.co2 196  GLU196     -0.2457
     65  OE2        8.4890   68.0280   59.6520 O.co2 196  GLU196     -0.2457
     66  N          7.4780   65.3680   56.8980 N.am  197  SER197     -0.1952
     67  CA         7.2330   64.2240   57.7740 C.3   197  SER197      0.1924
     68  C          6.1930   63.2770   57.1960 C.2   197  SER197      0.2314
     69  O          6.5960   62.4380   56.3760 O.2   197  SER197     -0.2863
     70  CB         6.8580   64.7050   59.1770 C.3   197  SER197      0.2116
     71  OG         5.6040   65.3450   59.2320 O.3   197  SER197     -0.2180
     72  N          7.5290   54.4810   61.1950 N.3   230  TRP230     -0.1241
     73  CA         6.1920   54.8290   61.6030 C.3   230  TRP230      0.1605
     74  C          5.2470   55.1710   60.4700 C.2   230  TRP230      0.2264
     75  O          4.0690   55.4300   60.7260 O.2   230  TRP230     -0.2867
     76  CB         6.3150   56.0910   62.4880 C.3   230  TRP230      0.0550
     77  CG         7.1460   57.1080   61.7430 C.ar  230  TRP230      0.0003
     78  CD1        8.4950   57.2710   61.8320 C.ar  230  TRP230      0.0946
     79  CD2        6.6860   58.0580   60.7770 C.ar  230  TRP230      0.0152
     80  NE1        8.8920   58.2880   61.0030 N.ar  230  TRP230     -0.2442
     81  CE2        7.8090   58.7820   60.3390 C.ar  230  TRP230      0.0810
     82  CE3        5.4310   58.3690   60.2430 C.ar  230  TRP230      0.0012
     83  CZ2        7.7290   59.8050   59.3990 C.ar  230  TRP230      0.0191
     84  CZ3        5.3490   59.3880   59.3110 C.ar  230  TRP230      0.0001
     85  CH2        6.4880   60.0920   58.8990 C.ar  230  TRP230      0.0015
     86  N          6.9910   58.2200   68.7250 N.3   285  PHE285     -0.1241
     87  CA         7.1530   58.3520   67.2880 C.3   285  PHE285      0.1605
     88  C          6.4670   57.1890   66.5740 C.2   285  PHE285      0.2264
     89  O          6.9710   56.6280   65.6050 O.2   285  PHE285     -0.2867
     90  CB         8.6220   58.4100   66.8700 C.3   285  PHE285      0.0534
     91  CG         8.8710   59.4610   65.8230 C.ar  285  PHE285     -0.0203
     92  CD1        7.9760   59.6410   64.7830 C.ar  285  PHE285     -0.0042
     93  CD2        9.9900   60.2740   65.8960 C.ar  285  PHE285     -0.0042
     94  CE1        8.2020   60.6030   63.8160 C.ar  285  PHE285     -0.0003
     95  CE2       10.2140   61.2420   64.9380 C.ar  285  PHE285     -0.0003
     96  CZ         9.3210   61.4040   63.8950 C.ar  285  PHE285     -0.0000
     97  N          2.4250   56.1870   65.3380 N.3   287  PHE287     -0.1241
     98  CA         1.0620   56.6950   65.1840 C.3   287  PHE287      0.1605
     99  C          0.1110   55.5530   64.9000 C.2   287  PHE287      0.2264
    100  O          0.4880   54.5820   64.2580 O.2   287  PHE287     -0.2867
    101  CB         1.0240   57.7630   64.0840 C.3   287  PHE287      0.0534
    102  CG         2.1720   58.7150   64.3040 C.ar  287  PHE287     -0.0203
    103  CD1        2.2060   59.4950   65.4460 C.ar  287  PHE287     -0.0042
    104  CD2        3.2440   58.7500   63.4400 C.ar  287  PHE287     -0.0042
    105  CE1        3.2660   60.3450   65.6880 C.ar  287  PHE287     -0.0003
    106  CE2        4.3070   59.6050   63.6690 C.ar  287  PHE287     -0.0003
    107  CZ         4.3160   60.4050   64.7930 C.ar  287  PHE287     -0.0000
    108  N         11.1400   66.9840   69.7490 N.3   327  PHE327     -0.1227
    109  CA         9.6910   67.0860   69.8260 C.3   327  PHE327      0.1736
    110  C          9.0210   65.8840   70.4790 C.2   327  PHE327      0.2595
    111  O          8.2100   66.0380   71.4000 O.2   327  PHE327     -0.2718
    112  CB         9.0960   67.2860   68.4230 C.3   327  PHE327      0.0547
    113  CG         7.6180   67.5570   68.4460 C.ar  327  PHE327     -0.0202
    114  CD1        7.1350   68.8340   68.6750 C.ar  327  PHE327     -0.0042
    115  CD2        6.7090   66.5340   68.2350 C.ar  327  PHE327     -0.0042
    116  CE1        5.7750   69.0810   68.6990 C.ar  327  PHE327     -0.0003
    117  CE2        5.3450   66.7670   68.2580 C.ar  327  PHE327     -0.0003
    118  CZ         4.8790   68.0470   68.4900 C.ar  327  PHE327     -0.0000
    119  N          9.3190   64.6830   70.0110 N.am  328  PHE328     -0.1976
    120  CA         8.6830   63.4730   70.5260 C.3   328  PHE328      0.1639
    121  C          9.1030   63.1180   71.9350 C.2   328  PHE328      0.2290
    122  O          8.2920   62.5380   72.6610 O.2   328  PHE328     -0.2864
    123  CB         8.9770   62.3180   69.5370 C.3   328  PHE328      0.0560
    124  CG         8.4010   62.7500   68.2100 C.ar  328  PHE328     -0.0200
    125  CD1        7.0570   62.5580   67.9500 C.ar  328  PHE328     -0.0042
    126  CD2        9.1910   63.4160   67.2930 C.ar  328  PHE328     -0.0042
    127  CE1        6.5190   62.9860   66.7540 C.ar  328  PHE328     -0.0003
    128  CE2        8.6450   63.8530   66.0970 C.ar  328  PHE328     -0.0003
    129  CZ         7.3120   63.6310   65.8240 C.ar  328  PHE328     -0.0000
    130  N         12.0840   69.3160   64.4510 N.3   437  HIS437     -0.1226
    131  CA        11.2540   68.7030   63.4280 C.3   437  HIS437      0.1752
    132  C         10.1860   69.7020   63.0200 C.2   437  HIS437      0.2597
    133  O          9.5440   70.3080   63.8780 O.2   437  HIS437     -0.2718
    134  CB        10.6790   67.4330   64.0140 C.3   437  HIS437      0.0759
    135  CG         9.8580   66.5430   63.1590 C.ar  437  HIS437      0.0818
    136  ND1       10.3860   65.7670   62.1580 N.ar  437  HIS437     -0.2268
    137  CD2        8.5270   66.2800   63.1750 C.ar  437  HIS437      0.1154
    138  CE1        9.4200   65.0760   61.5760 C.ar  437  HIS437      0.1986
    139  NE2        8.2800   65.3690   62.1790 N.ar  437  HIS437     -0.2212
    140  N          9.9960   69.8960   61.7260 N.am  438  GLY438     -0.1942
    141  CA         9.0140   70.8020   61.1820 C.3   438  GLY438      0.2014
    142  C          9.3120   72.2770   61.2600 C.2   438  GLY438      0.2638
    143  O          8.4520   73.0930   60.8990 O.2   438  GLY438     -0.2714
    144  N         10.5100   72.6540   61.7050 N.am  439  TYR439     -0.1973
    145  CA        10.7800   74.1020   61.7930 C.3   439  TYR439      0.1639
    146  C         11.6190   74.6150   60.6390 C.2   439  TYR439      0.2290
    147  O         12.1960   75.7050   60.6700 O.2   439  TYR439     -0.2864
    148  CB        11.3510   74.3620   63.1990 C.3   439  TYR439      0.0560
    149  CG        10.1450   74.4270   64.1320 C.ar  439  TYR439     -0.0198
    150  CD1        9.4920   75.6330   64.3330 C.ar  439  TYR439     -0.0009
    151  CD2        9.6390   73.2880   64.7440 C.ar  439  TYR439     -0.0009
    152  CE1        8.3810   75.7130   65.1500 C.ar  439  TYR439      0.0417
    153  CE2        8.5290   73.3600   65.5650 C.ar  439  TYR439      0.0417
    154  CZ         7.9050   74.5760   65.7640 C.ar  439  TYR439      0.1957
    155  OH         6.8030   74.6720   66.5820 O.3   439  TYR439     -0.2866
    156  N          9.8480   74.3000   57.6510 N.3   441  ILE441     -0.1245
    157  CA         8.6400   74.6520   56.9310 C.3   441  ILE441      0.1561
    158  C          8.5140   76.1580   56.7720 C.2   441  ILE441      0.2260
    159  O          8.4230   76.6780   55.6700 O.2   441  ILE441     -0.2867
    160  CB         7.3740   74.1300   57.6420 C.3   441  ILE441      0.0252
    161  CG1        7.4010   72.6090   57.7840 C.3   441  ILE441      0.0019
    162  CG2        6.1440   74.6020   56.8760 C.3   441  ILE441      0.0019
    163  CD1        6.1010   71.9750   58.2340 C.3   441  ILE441      0.0001
@<TRIPOS>BOND
     1    48    47    2
     2    47    46    1
     3    57    58    1
     4    46    49    1
     5    46    45    1
     6    49    50    1
     7    58    61    1
     8    58    59    1
     9   159   158    2
    10    50    51   ar
    11    50    52   ar
    12    61    62    1
    13    51    53   ar
    14    59    60    2
    15    59    66   am
    16    69    68    2
    17    52    54   ar
    18   158   157    1
    19   162   160    1
    20    66    67    1
    21   157   160    1
    22   157   156    1
    23    15    16    1
    24    53    55   ar
    25    68    67    1
    26    62    63    1
    27    54    55   ar
    28   160   161    1
    29    55    56    1
    30    67    70    1
    31   161   163    1
    32    16    17    1
    33    63    64   ar
    34    63    65   ar
    35    85    84   ar
    36    85    83   ar
    37    18    17    2
    38    17    19   am
    39    70    71    1
    40    84    82   ar
    41    83    81   ar
    42    19    20    1
    43    42    41    2
    44    82    79   ar
    45    81    79   ar
    46    81    80   ar
    47    74    75    2
    48    74    73    1
    49   146   147    2
    50   146   145    1
    51    79    77   ar
    52   143   142    2
    53    41    40    1
    54    80    78   ar
    55   141   142    1
    56   141   140    1
    57    72    73    1
    58    20    21    1
    59    25    24    1
    60    25    26    2
    61    13    14   ar
    62    13    11   ar
    63   142   144   am
    64    23    21   am
    65    23    24    1
    66   138   136   ar
    67   138   139   ar
    68    21    22    2
    69    73    76    1
    70   144   145    1
    71    14    12   ar
    72   140   132   am
    73    77    78   ar
    74    77    76    1
    75    27    28    1
    76   145   148    1
    77    11     8   ar
    78   136   135   ar
    79   139   137   ar
    80    39    40    1
    81    39    29   am
    82    40    43    1
    83    28    29    1
    84    28    31    1
    85    29    30    2
    86   132   131    1
    87   132   133    2
    88    12    10   ar
    89   135   137   ar
    90   135   134    1
    91   148   149    1
    92   131   134    1
    93   131   130    1
    94    43    44    1
    95   104   106   ar
    96   104   102   ar
    97     8    10   ar
    98     8     6   ar
    99   106   107   ar
   100     4     3    2
   101    94    96   ar
   102    94    92   ar
   103    96    95   ar
   104    10     9   ar
   105    31    32    1
   106   101   102    1
   107   101    98    1
   108   149   150   ar
   109   149   151   ar
   110   100    99    2
   111     2     3    1
   112     2     5    1
   113     2     1    1
   114   102   103   ar
   115   150   152   ar
   116     6     5    1
   117     6     7   ar
   118    34    32   ar
   119    34    36   ar
   120   151   153   ar
   121    32    33   ar
   122    92    91   ar
   123   107   105   ar
   124    99    98    1
   125    95    93   ar
   126   152   154   ar
   127    98    97    1
   128     9     7   ar
   129    36    37   ar
   130   103   105   ar
   131    33    35   ar
   132   153   154   ar
   133    89    88    2
   134   154   155    1
   135    91    93   ar
   136    91    90    1
   137   129   128   ar
   138   129   127   ar
   139    37    35   ar
   140    37    38    1
   141   128   126   ar
   142    88    87    1
   143   127   125   ar
   144    90    87    1
   145    87    86    1
   146   126   124   ar
   147   125   124   ar
   148   124   123    1
   149   115   117   ar
   150   115   113   ar
   151   117   118   ar
   152   112   113    1
   153   112   109    1
   154   113   114   ar
   155   118   116   ar
   156   114   116   ar
   157   123   120    1
   158   108   109    1
   159   109   110    1
   160   119   110   am
   161   119   120    1
   162   110   111    2
   163   120   121    1
   164   121   122    2
