@<TRIPOS>MOLECULE
tmp/1axaB00.pdb
 130 123 0 0 0
SMALL
GASTEIGER

@<TRIPOS>ATOM
      1  N        -21.7130   20.0090   34.1130 N.3     8  ARG8       -0.1241
      2  CA       -21.0750   19.7500   32.8130 C.3     8  ARG8        0.1606
      3  C        -21.8510   20.4710   31.6690 C.2     8  ARG8        0.2264
      4  O        -23.0810   20.3680   31.6160 O.2     8  ARG8       -0.2867
      5  CB       -21.0020   18.2150   32.6000 C.3     8  ARG8        0.0562
      6  CG       -19.8650   17.4680   33.3570 C.2     8  ARG8        0.0159
      7  CD       -19.9870   15.9210   33.4150 C.2     8  ARG8        0.1886
      8  NE       -18.7960   15.1610   33.8900 N.pl3   8  ARG8       -0.0578
      9  CZ       -18.6600   14.4120   35.0360 C.cat   8  ARG8        0.5393
     10  NH1      -19.6520   14.2910   35.9430 N.pl3   8  ARG8        0.1358
     11  NH2      -17.5080   13.7790   35.3170 N.pl3   8  ARG8        0.1358
     12  N        -20.4200   17.1690   25.0870 N.3    23  LEU23      -0.1245
     13  CA       -19.8490   18.2340   25.9040 C.3    23  LEU23       0.1561
     14  C        -19.2550   19.3710   25.1560 C.2    23  LEU23       0.2260
     15  O        -18.4320   19.1740   24.2730 O.2    23  LEU23      -0.2867
     16  CB       -18.5410   17.7040   26.5320 C.3    23  LEU23       0.0270
     17  CG       -18.7180   17.4550   27.9840 C.3    23  LEU23       0.0019
     18  CD1      -17.4300   16.9420   28.5830 C.3    23  LEU23       0.0001
     19  CD2      -19.0950   18.7110   28.7430 C.3    23  LEU23       0.0001
     20  N        -16.4640   21.5340   24.8960 N.3    25  ASP25      -0.1239
     21  CA       -15.1520   21.5350   25.4080 C.3    25  ASP25       0.1674
     22  C        -14.2530   22.5870   24.8520 C.2    25  ASP25       0.2266
     23  O        -13.5670   22.4210   23.8830 O.2    25  ASP25      -0.2867
     24  CB       -14.5740   20.1720   25.1200 C.3    25  ASP25       0.1410
     25  CG       -13.3550   19.8200   25.9100 C.2    25  ASP25       0.3668
     26  OD1      -12.7810   20.4670   26.7240 O.co2  25  ASP25      -0.2456
     27  OD2      -12.9110   18.6760   25.6220 O.co2  25  ASP25      -0.2456
     28  N        -11.2780   23.0100   25.8180 N.3    27  GLY27      -0.1210
     29  CA        -9.9040   22.5650   25.7860 C.3    27  GLY27       0.1956
     30  C         -9.6380   21.5730   24.7020 C.2    27  GLY27       0.2613
     31  O         -8.5320   21.1140   24.6050 O.2    27  GLY27      -0.2717
     32  N        -10.6160   21.2950   23.8290 N.am   28  SER28      -0.1938
     33  CA       -10.3480   20.3660   22.7540 C.3    28  SER28       0.2055
     34  C        -10.2590   21.1670   21.4870 C.2    28  SER28       0.2643
     35  O        -11.0930   22.0230   21.2170 O.2    28  SER28      -0.2714
     36  CB       -11.4860   19.3680   22.5930 C.3    28  SER28       0.2130
     37  OG       -11.3870   18.3900   23.5700 O.3    28  SER28      -0.2179
     38  N         -9.2160   20.9480   20.7230 N.am   29  ASP29      -0.1957
     39  CA        -9.1270   21.6630   19.4840 C.3    29  ASP29       0.1840
     40  C        -10.0930   21.0500   18.5010 C.2    29  ASP29       0.2622
     41  O        -10.5850   21.7640   17.6480 O.2    29  ASP29      -0.2715
     42  CB        -7.7780   21.5020   18.8110 C.3    29  ASP29       0.1450
     43  CG        -6.6450   21.8340   19.7490 C.2    29  ASP29       0.3671
     44  OD1       -6.7590   22.7850   20.4920 O.co2  29  ASP29      -0.2456
     45  OD2       -5.6090   20.9990   19.7020 O.co2  29  ASP29      -0.2456
     46  N        -10.3130   19.7240   18.5700 N.am   30  ASP30      -0.1971
     47  CA       -11.1780   19.0080   17.6470 C.3    30  ASP30       0.1709
     48  C        -12.4720   18.4950   18.2610 C.2    30  ASP30       0.2293
     49  O        -12.6780   18.6170   19.4970 O.2    30  ASP30      -0.2864
     50  CB       -10.4210   17.8110   17.0970 C.3    30  ASP30       0.1436
     51  CG        -9.1190   18.1640   16.4320 C.2    30  ASP30       0.3671
     52  OD1       -9.0680   18.9310   15.5120 O.co2  30  ASP30      -0.2456
     53  OD2       -8.0620   17.5770   16.9130 O.co2  30  ASP30      -0.2456
     54  N        -14.7790   15.1810   18.7100 N.3    32  VAL32      -0.1245
     55  CA       -14.6280   13.7400   18.8030 C.3    32  VAL32       0.1561
     56  C        -15.8140   13.0400   19.3540 C.2    32  VAL32       0.2260
     57  O        -16.3170   13.4020   20.4040 O.2    32  VAL32      -0.2867
     58  CB       -13.2520   13.1840   19.2010 C.3    32  VAL32       0.0252
     59  CG1      -12.5500   14.0810   20.1800 C.3    32  VAL32       0.0019
     60  CG2      -13.2120   11.7290   19.6320 C.3    32  VAL32       0.0019
     61  N         -6.3340    8.9400   11.7990 N.3    45  LYS45      -0.1231
     62  CA        -5.6440   10.0530   12.4220 C.3    45  LYS45       0.1693
     63  C         -5.3610    9.6410   13.8480 C.2    45  LYS45       0.2592
     64  O         -6.0060    8.7490   14.3740 O.2    45  LYS45      -0.2718
     65  CB        -6.5990   11.2630   12.4570 C.3    45  LYS45       0.0285
     66  CG        -6.0050   12.6370   12.2170 C.3    45  LYS45       0.0035
     67  CD        -6.7700   13.7590   12.9770 C.3    45  LYS45       0.0206
     68  CE        -6.0620   15.1190   13.2380 C.3    45  LYS45       0.1093
     69  NZ        -6.9180   16.3360   13.1780 N.3    45  LYS45      -0.1314
     70  N         -4.4230   10.3130   14.4700 N.am   46  MET46      -0.1965
     71  CA        -4.0900   10.0750   15.8610 C.3    46  MET46       0.1736
     72  C         -4.3140   11.3270   16.6810 C.2    46  MET46       0.2616
     73  O         -3.8570   12.4340   16.3620 O.2    46  MET46      -0.2715
     74  CB        -2.6340    9.6820   16.1290 C.3    46  MET46       0.0427
     75  CG        -2.5390    8.4970   17.0450 C.3    46  MET46       0.0599
     76  SD        -1.6260    7.1930   16.2270 S.3    46  MET46      -0.1393
     77  CE        -2.0090    5.7300   17.2260 C.3    46  MET46       0.0692
     78  N         -5.0120   11.1950   17.7880 N.am   47  ILE47      -0.1963
     79  CA        -5.1700   12.3720   18.5970 C.3    47  ILE47       0.1727
     80  C         -4.6780   11.9790   19.9680 C.2    47  ILE47       0.2617
     81  O         -4.6230   10.8140   20.3460 O.2    47  ILE47      -0.2715
     82  CB        -6.5580   13.0190   18.6530 C.3    47  ILE47       0.0290
     83  CG1       -7.5550   12.0430   19.2200 C.3    47  ILE47       0.0022
     84  CG2       -7.0400   13.6610   17.3870 C.3    47  ILE47       0.0023
     85  CD1       -8.6600   12.7190   20.0100 C.3    47  ILE47       0.0001
     86  N         -4.3670   12.9610   20.7650 N.am   48  GLY48      -0.1940
     87  CA        -3.9060   12.6570   22.1100 C.3    48  GLY48       0.2014
     88  C         -4.5790   13.4890   23.2080 C.2    48  GLY48       0.2639
     89  O         -5.1540   14.5230   22.9220 O.2    48  GLY48      -0.2714
     90  N         -4.5620   13.0300   24.4510 N.am   49  GLY49      -0.1939
     91  CA        -5.1720   13.7760   25.5430 C.3    49  GLY49       0.2014
     92  C         -4.5220   13.3760   26.8390 C.2    49  GLY49       0.2638
     93  O         -3.4350   12.8180   26.7690 O.2    49  GLY49      -0.2714
     94  N         -5.1830   13.6260   27.9830 N.am   50  ILE50      -0.1977
     95  CA        -4.7550   13.2570   29.3220 C.3    50  ILE50       0.1596
     96  C         -4.2360   11.8320   29.4210 C.2    50  ILE50       0.2287
     97  O         -3.1650   11.5430   29.9560 O.2    50  ILE50      -0.2864
     98  CB        -5.9460   13.4430   30.2980 C.3    50  ILE50       0.0276
     99  CG1       -5.8300   14.8250   30.9270 C.3    50  ILE50       0.0022
    100  CG2       -5.9870   12.4690   31.4920 C.3    50  ILE50       0.0022
    101  CD1       -4.4850   15.4550   30.7490 C.3    50  ILE50       0.0001
    102  N        -13.6630    7.6960   22.2880 N.3    80  THR80      -0.1204
    103  CA       -13.7090    8.6650   23.3320 C.3    80  THR80       0.1979
    104  C        -14.6770    8.1760   24.3900 C.2    80  THR80       0.2460
    105  O        -15.5980    7.4130   24.0790 O.2    80  THR80      -0.2732
    106  CB       -14.0720   10.0320   22.7620 C.3    80  THR80       0.1783
    107  OG1      -14.1870   10.9730   23.8030 O.3    80  THR80      -0.2211
    108  CG2      -15.3400    9.9160   21.9510 C.3    80  THR80       0.0376
    109  N        -14.4890    8.5860   25.6700 N.am   81  PRO81      -0.2717
    110  CA       -15.4740    8.1280   26.6630 C.3    81  PRO81       0.1535
    111  C        -16.8170    8.8490   26.4980 C.2    81  PRO81       0.2598
    112  O        -17.9020    8.3300   26.7650 O.2    81  PRO81      -0.2715
    113  CB       -14.8900    8.5820   28.0030 C.3    81  PRO81       0.0310
    114  CG       -13.4130    8.8420   27.7960 C.3    81  PRO81       0.0237
    115  CD       -13.2330    9.1200   26.3580 C.3    81  PRO81       0.0939
    116  N        -16.6940   10.1560   26.1370 N.am   82  VAL82      -0.1978
    117  CA       -17.8070   11.0580   25.9620 C.3    82  VAL82       0.1596
    118  C        -17.7120   11.8290   24.6640 C.2    82  VAL82       0.2287
    119  O        -16.6510   12.0570   24.1700 O.2    82  VAL82      -0.2864
    120  CB       -18.0890   11.9960   27.1860 C.3    82  VAL82       0.0276
    121  CG1      -17.5170   11.6380   28.5750 C.3    82  VAL82       0.0022
    122  CG2      -17.8170   13.4630   26.9360 C.3    82  VAL82       0.0022
    123  N        -17.4780   14.8770   22.3650 N.3    84  ILE84      -0.1245
    124  CA       -16.9430   16.2100   22.6400 C.3    84  ILE84       0.1561
    125  C        -16.9950   17.1350   21.4320 C.2    84  ILE84       0.2260
    126  O        -16.6650   16.7290   20.3540 O.2    84  ILE84      -0.2867
    127  CB       -15.4500   16.0540   22.9960 C.3    84  ILE84       0.0252
    128  CG1      -14.9500   14.9410   23.8790 C.3    84  ILE84       0.0019
    129  CG2      -14.5030   17.2570   22.9040 C.3    84  ILE84       0.0019
    130  CD1      -13.4950   14.9440   23.6960 C.3    84  ILE84       0.0001
@<TRIPOS>BOND
     1    61    62    1
     2    66    65    1
     3    66    67    1
     4    62    65    1
     5    62    63    1
     6    67    68    1
     7    69    68    1
     8    63    64    2
     9    63    70   am
    10    70    71    1
    11    52    51   ar
    12    71    74    1
    13    71    72    1
    14    74    75    1
    15    76    75    1
    16    76    77    1
    17    73    72    2
    18    51    53   ar
    19    51    50    1
    20    72    78   am
    21    50    47    1
    22    84    82    1
    23    47    48    1
    24    47    46    1
    25    41    40    2
    26    78    79    1
    27    48    49    2
    28    40    46   am
    29    40    39    1
    30    79    82    1
    31    79    80    1
    32    82    83    1
    33    54    55    1
    34    55    58    1
    35    55    56    1
    36    42    39    1
    37    42    43    1
    38    58    60    1
    39    58    59    1
    40    83    85    1
    41    56    57    2
    42    39    38    1
    43    45    43   ar
    44    43    44   ar
    45    80    81    2
    46    80    86   am
    47   126   125    2
    48    38    34   am
    49    86    87    1
    50    35    34    2
    51   125   124    1
    52    34    33    1
    53   108   106    1
    54    87    88    1
    55   102   103    1
    56   123   124    1
    57    36    33    1
    58    36    37    1
    59   124   127    1
    60    33    32    1
    61   106   103    1
    62   106   107    1
    63   129   127    1
    64    89    88    2
    65   127   128    1
    66    88    90   am
    67   103   104    1
    68   130   128    1
    69    32    30   am
    70    23    22    2
    71   105   104    2
    72   119   118    2
    73    15    14    2
    74   104   109   am
    75    90    91    1
    76    31    30    2
    77   118   117    1
    78    30    29    1
    79    22    21    1
    80    20    21    1
    81    12    13    1
    82    24    21    1
    83    24    25    1
    84    14    13    1
    85    91    92    1
    86    27    25   ar
    87   109   115    1
    88   109   110    1
    89    29    28    1
    90    13    16    1
    91    25    26   ar
    92   117   116    1
    93   117   120    1
    94   116   111   am
    95   115   114    1
    96   111   110    1
    97   111   112    2
    98    16    17    1
    99   110   113    1
   100    93    92    2
   101    92    94   am
   102   122   120    1
   103   120   121    1
   104   114   113    1
   105    94    95    1
   106    17    18    1
   107    17    19    1
   108    95    96    1
   109    95    98    1
   110    96    97    2
   111    98    99    1
   112    98   100    1
   113   101    99    1
   114     4     3    2
   115     3     2    1
   116     5     2    1
   117     5     6    1
   118     2     1    1
   119     6     7    2
   120     7     8    1
   121     8     9    2
   122     9    11    1
   123     9    10    1
