@<TRIPOS>MOLECULE
tmp/1axbA00.pdb
 110 104 0 0 0
SMALL
GASTEIGER

@<TRIPOS>ATOM
      1  N         12.4440    2.7720   34.2500 N.3    44  MET44      -0.1230
      2  CA        12.3460    4.0860   34.8800 C.3    44  MET44       0.1702
      3  C         10.9580    4.1580   35.5410 C.2    44  MET44       0.2593
      4  O         10.4440    3.1400   35.9980 O.2    44  MET44      -0.2718
      5  CB        12.5350    5.1910   33.8340 C.3    44  MET44       0.0401
      6  CG        13.8700    5.1220   33.1100 C.3    44  MET44       0.0596
      7  SD        13.8670    6.1420   31.6390 S.3    44  MET44      -0.1393
      8  CE        12.7330    5.1980   30.6170 C.3    44  MET44       0.0692
      9  N         10.3200    5.3200   35.5360 N.am   45  SER45      -0.1952
     10  CA         9.0110    5.4470   36.1690 C.3    45  SER45       0.1924
     11  C          7.8480    4.6650   35.5590 C.2    45  SER45       0.2314
     12  O          6.7920    4.5520   36.1850 O.2    45  SER45      -0.2863
     13  CB         8.6180    6.9140   36.3090 C.3    45  SER45       0.2116
     14  OG         9.4240    7.5810   37.2790 O.3    45  SER45      -0.2180
     15  N          5.8700    2.0890   37.6490 N.3    48  LYS48      -0.1245
     16  CA         4.8650    2.5000   38.6230 C.3    48  LYS48       0.1561
     17  C          3.4540    2.0650   38.2740 C.2    48  LYS48       0.2260
     18  O          2.6270    1.8660   39.1640 O.2    48  LYS48      -0.2867
     19  CB         4.9370    4.0100   38.8800 C.3    48  LYS48       0.0271
     20  CG         6.2170    4.4150   39.6150 C.3    48  LYS48       0.0035
     21  CD         6.3920    5.9230   39.6970 C.3    48  LYS48       0.0206
     22  CE         7.7770    6.2690   40.2070 C.3    48  LYS48       0.1093
     23  NZ         8.0520    7.7220   40.1110 N.3    48  LYS48      -0.1314
     24  N         14.6210   11.7350   46.4300 N.3    79  GLU79      -0.1231
     25  CA        14.6070   12.7450   45.3800 C.3    79  GLU79       0.1699
     26  C         13.3190   12.7070   44.5620 C.2    79  GLU79       0.2592
     27  O         12.8630   11.6420   44.1540 O.2    79  GLU79      -0.2718
     28  CB        15.8180   12.5440   44.4700 C.3    79  GLU79       0.0402
     29  CG        17.1460   12.6280   45.2120 C.3    79  GLU79       0.1161
     30  CD        18.1490   11.5990   44.7360 C.2    79  GLU79       0.3649
     31  OE1       18.6260   11.7110   43.5850 O.co2  79  GLU79      -0.2457
     32  OE2       18.4600   10.6760   45.5210 O.co2  79  GLU79      -0.2457
     33  N         12.7510   13.8860   44.3360 N.am   80  TYR80      -0.1976
     34  CA        11.5180   14.0650   43.5790 C.3    80  TYR80       0.1639
     35  C         10.2910   13.3900   44.1910 C.2    80  TYR80       0.2290
     36  O          9.8760   12.3000   43.7910 O.2    80  TYR80      -0.2864
     37  CB        11.6850   13.6610   42.1080 C.3    80  TYR80       0.0560
     38  CG        10.4890   14.0560   41.2710 C.ar   80  TYR80      -0.0198
     39  CD1       10.2640   15.3910   40.9300 C.ar   80  TYR80      -0.0009
     40  CD2        9.5450   13.1090   40.8700 C.ar   80  TYR80      -0.0009
     41  CE1        9.1260   15.7740   40.2170 C.ar   80  TYR80       0.0417
     42  CE2        8.4030   13.4810   40.1590 C.ar   80  TYR80       0.0417
     43  CZ         8.2000   14.8140   39.8370 C.ar   80  TYR80       0.1957
     44  OH         7.0710   15.1910   39.1470 O.3    80  TYR80      -0.2866
     45  N          4.4100   11.0270   39.3240 N.3   105  SER105     -0.1217
     46  CA         5.6670   10.2730   39.3150 C.3   105  SER105      0.1889
     47  C          6.4370   10.4740   40.6240 C.2   105  SER105      0.2288
     48  O          7.6660   10.5180   40.6440 O.2   105  SER105     -0.2866
     49  CB         6.5340   10.6550   38.1010 C.3   105  SER105      0.2089
     50  OG         7.3920    9.5930   37.7040 O.3   105  SER105     -0.2183
     51  N          8.4390    9.7520   43.5820 N.3   107  ASN107     -0.1240
     52  CA         9.3530    8.6590   43.9080 C.3   107  ASN107      0.1653
     53  C          9.1530    8.0160   45.2760 C.2   107  ASN107      0.2266
     54  O          9.1820    6.7890   45.3880 O.2   107  ASN107     -0.2867
     55  CB        10.8090    9.0920   43.7150 C.3   107  ASN107      0.1155
     56  CG        11.2010    9.1580   42.2490 C.2   107  ASN107      0.2627
     57  OD1       10.6090    8.4780   41.4090 O.2   107  ASN107     -0.2716
     58  ND2       12.2020    9.9680   41.9340 N.am  107  ASN107     -0.0877
     59  N         13.6670    3.3630   44.3890 N.3   141  GLU141     -0.1231
     60  CA        13.9190    4.7240   43.9260 C.3   141  GLU141      0.1684
     61  C         15.0220    5.3270   44.7990 C.2   141  GLU141      0.2434
     62  O         15.0190    5.1530   46.0180 O.2   141  GLU141     -0.2733
     63  CB        12.6480    5.5720   44.0330 C.3   141  GLU141      0.0402
     64  CG        11.5110    5.1430   43.1160 C.3   141  GLU141      0.1161
     65  CD        11.7410    5.4940   41.6540 C.2   141  GLU141      0.3649
     66  OE1       12.8490    5.9430   41.2880 O.co2 141  GLU141     -0.2457
     67  OE2       10.7920    5.3340   40.8610 O.co2 141  GLU141     -0.2457
     68  N         15.9510    6.0890   44.1960 N.am  142  PRO142     -0.2729
     69  CA        16.0390    6.4260   42.7750 C.3   142  PRO142      0.1401
     70  C         17.0700    5.5970   42.0040 C.2   142  PRO142      0.2269
     71  O         17.2570    5.8100   40.8080 O.2   142  PRO142     -0.2865
     72  CB        16.4760    7.8770   42.8340 C.3   142  PRO142      0.0296
     73  CG        17.5290    7.8060   43.9030 C.3   142  PRO142      0.0237
     74  CD        16.8970    6.9120   44.9720 C.3   142  PRO142      0.0939
     75  N         16.8780    4.0140   38.3210 N.3   145  ASN145     -0.1240
     76  CA        16.9440    4.8380   37.1120 C.3   145  ASN145      0.1653
     77  C         18.3820    5.0410   36.6500 C.2   145  ASN145      0.2266
     78  O         18.6420    5.8960   35.8030 O.2   145  ASN145     -0.2867
     79  CB        16.3330    6.2140   37.3660 C.3   145  ASN145      0.1155
     80  CG        14.9840    6.1310   38.0140 C.2   145  ASN145      0.2627
     81  OD1       14.8250    6.4280   39.2030 O.2   145  ASN145     -0.2716
     82  ND2       14.0020    5.6950   37.2520 N.am  145  ASN145     -0.0877
     83  N          5.1460    8.2290   31.7080 N.3   210  SER210     -0.1202
     84  CA         6.4730    8.4660   31.1530 C.3   210  SER210      0.2020
     85  C          7.5800    8.0940   32.1310 C.2   210  SER210      0.2619
     86  O          7.3260    7.7700   33.3030 O.2   210  SER210     -0.2717
     87  CB         6.6190    9.9390   30.7640 C.3   210  SER210      0.2103
     88  OG         6.4510   10.7770   31.8970 O.3   210  SER210     -0.2182
     89  N          8.8130    8.1430   31.6450 N.am  211  GLY211     -0.1942
     90  CA         9.9460    7.8340   32.4880 C.3   211  GLY211      0.2014
     91  C         11.1520    8.6020   31.9960 C.2   211  GLY211      0.2639
     92  O         11.2410    8.9130   30.8090 O.2   211  GLY211     -0.2714
     93  N         12.0410    8.9590   32.9180 N.am  212  ALA212     -0.1963
     94  CA        13.2780    9.6730   32.6020 C.3   212  ALA212      0.1728
     95  C         14.3080    9.1690   33.6020 C.2   212  ALA212      0.2617
     96  O         14.0020    9.0200   34.7820 O.2   212  ALA212     -0.2715
     97  CB        13.0890   11.1860   32.7470 C.3   212  ALA212      0.0334
     98  N         15.5080    8.8640   33.1290 N.am  213  GLY213     -0.1940
     99  CA        16.5380    8.3670   34.0200 C.3   213  GLY213      0.2014
    100  C         17.9020    8.8880   33.6360 C.2   213  GLY213      0.2638
    101  O         18.0090    9.8200   32.8410 O.2   213  GLY213     -0.2714
    102  N         18.9450    8.2860   34.1940 N.am  214  GLU214     -0.1977
    103  CA        20.3130    8.6970   33.9010 C.3   214  GLU214      0.1602
    104  C         20.7020    8.2540   32.4960 C.2   214  GLU214      0.2287
    105  O         20.0000    7.4570   31.8700 O.2   214  GLU214     -0.2864
    106  CB        21.2780    8.0950   34.9250 C.3   214  GLU214      0.0415
    107  CG        21.0530    8.6040   36.3430 C.3   214  GLU214      0.1163
    108  CD        21.9110    7.9040   37.3870 C.2   214  GLU214      0.3649
    109  OE1       23.1140    7.6710   37.1390 O.co2 214  GLU214     -0.2457
    110  OE2       21.3760    7.6000   38.4730 O.co2 214  GLU214     -0.2457
@<TRIPOS>BOND
     1     8     7    1
     2    87    84    1
     3    87    88    1
     4    92    91    2
     5    84    83    1
     6    84    85    1
     7     7     6    1
     8    89    85   am
     9    89    90    1
    10   105   104    2
    11    91    90    1
    12    91    93   am
    13    85    86    2
    14   104   103    1
    15    94    97    1
    16    94    93    1
    17    94    95    1
    18   101   100    2
    19     6     5    1
    20    98    95   am
    21    98    99    1
    22    95    96    2
    23   100    99    1
    24   100   102   am
    25     5     2    1
    26   103   102    1
    27   103   106    1
    28     1     2    1
    29     2     3    1
    30   106   107    1
    31     9     3   am
    32     9    10    1
    33     3     4    2
    34    11    10    1
    35    11    12    2
    36    78    77    2
    37    10    13    1
    38    13    14    1
    39   107   108    1
    40    77    76    1
    41    76    79    1
    42    76    75    1
    43   109   108   ar
    44    82    80   am
    45    79    80    1
    46   108   110   ar
    47    15    16    1
    48    50    49    1
    49    80    81    2
    50    49    46    1
    51    17    16    1
    52    17    18    2
    53    16    19    1
    54    19    20    1
    55    44    43    1
    56    46    45    1
    57    46    47    1
    58    20    21    1
    59    21    22    1
    60    43    42   ar
    61    43    41   ar
    62    23    22    1
    63    42    40   ar
    64    41    39   ar
    65    47    48    2
    66    71    70    2
    67    67    65   ar
    68    40    38   ar
    69    39    38   ar
    70    38    37    1
    71    66    65   ar
    72    57    56    2
    73    65    64    1
    74    58    56   am
    75    70    69    1
    76    37    34    1
    77    56    55    1
    78    69    72    1
    79    69    68    1
    80    72    73    1
    81    64    63    1
    82    34    35    1
    83    34    33    1
    84    51    52    1
    85    31    30   ar
    86    55    52    1
    87    36    35    2
    88    73    74    1
    89    52    53    1
    90    60    63    1
    91    60    59    1
    92    60    61    1
    93    27    26    2
    94    68    61   am
    95    68    74    1
    96    33    26   am
    97    28    29    1
    98    28    25    1
    99    26    25    1
   100    30    29    1
   101    30    32   ar
   102    61    62    2
   103    53    54    2
   104    25    24    1
