@<TRIPOS>MOLECULE
tmp/1axdB00.pdb
 119 119 0 0 0
SMALL
GASTEIGER

@<TRIPOS>ATOM
      1  N         14.1020  -16.9420    1.2010 N.3    10  MET10      -0.1230
      2  CA        13.7890  -16.0950    0.0560 C.3    10  MET10       0.1702
      3  C         13.0940  -14.7660    0.3820 C.2    10  MET10       0.2593
      4  O         13.3240  -13.7960   -0.3180 O.2    10  MET10      -0.2718
      5  CB        12.9300  -16.9000   -0.9300 C.3    10  MET10       0.0401
      6  CG        12.5480  -16.1830   -2.2170 C.3    10  MET10       0.0596
      7  SD        11.2780  -17.0750   -3.1590 S.3    10  MET10      -0.1393
      8  CE         9.8300  -15.9650   -2.9090 C.3    10  MET10       0.0692
      9  N         12.2510  -14.7100    1.4080 N.am   11  SER11      -0.1938
     10  CA        11.5710  -13.4550    1.7060 C.3    11  SER11       0.2055
     11  C         12.4090  -12.5250    2.5240 C.2    11  SER11       0.2643
     12  O         12.9360  -12.9350    3.5550 O.2    11  SER11      -0.2714
     13  CB        10.2280  -13.7080    2.3880 C.3    11  SER11       0.2130
     14  OG        10.3610  -13.9690    3.7700 O.3    11  SER11      -0.2179
     15  N         12.4860  -11.2620    2.1130 N.am   12  TRP12      -0.1959
     16  CA        13.2880  -10.2860    2.8380 C.3    12  TRP12       0.1771
     17  C         12.6780   -9.8750    4.1520 C.2    12  TRP12       0.2619
     18  O         13.3400   -9.2270    4.9430 O.2    12  TRP12      -0.2715
     19  CB        13.6480   -9.0810    1.9520 C.3    12  TRP12       0.0590
     20  CG        12.4860   -8.4790    1.2390 C.ar   12  TRP12       0.0006
     21  CD1       11.5220   -7.6840    1.7810 C.ar   12  TRP12       0.0946
     22  CD2       12.1270   -8.6670   -0.1380 C.ar   12  TRP12       0.0152
     23  NE1       10.5800   -7.3720    0.8360 N.ar   12  TRP12      -0.2442
     24  CE2       10.9210   -7.9600   -0.3530 C.ar   12  TRP12       0.0810
     25  CE3       12.7000   -9.3690   -1.2110 C.ar   12  TRP12       0.0012
     26  CZ2       10.2750   -7.9330   -1.5960 C.ar   12  TRP12       0.0191
     27  CZ3       12.0590   -9.3440   -2.4500 C.ar   12  TRP12       0.0001
     28  CH2       10.8580   -8.6280   -2.6280 C.ar   12  TRP12       0.0015
     29  N         11.4250  -10.2370    4.3910 N.am   13  ASN13      -0.1972
     30  CA        10.7860   -9.9220    5.6590 C.3    13  ASN13       0.1688
     31  C         11.3240  -10.9270    6.6390 C.2    13  ASN13       0.2292
     32  O         11.6060  -10.5900    7.7770 O.2    13  ASN13      -0.2864
     33  CB         9.2580  -10.0110    5.5290 C.3    13  ASN13       0.1181
     34  CG         8.6730   -8.8190    4.7860 C.2    13  ASN13       0.2629
     35  OD1        9.0730   -7.7010    5.0240 O.2    13  ASN13      -0.2716
     36  ND2        7.7520   -9.0590    3.8640 N.am   13  ASN13      -0.0877
     37  N          4.6980  -22.7030    1.0780 N.3    35  PHE35      -0.1241
     38  CA         3.4120  -22.1130    0.7100 C.3    35  PHE35       0.1605
     39  C          2.6580  -23.0230   -0.2530 C.2    35  PHE35       0.2264
     40  O          1.4400  -23.0170   -0.2340 O.2    35  PHE35      -0.2867
     41  CB         3.6010  -20.7280    0.0480 C.3    35  PHE35       0.0534
     42  CG         3.9440  -19.6010    1.0120 C.ar   35  PHE35      -0.0203
     43  CD1        3.8360  -19.7600    2.3910 C.ar   35  PHE35      -0.0042
     44  CD2        4.3640  -18.3690    0.5270 C.ar   35  PHE35      -0.0042
     45  CE1        4.1460  -18.7020    3.2640 C.ar   35  PHE35      -0.0003
     46  CE2        4.6740  -17.3170    1.3950 C.ar   35  PHE35      -0.0003
     47  CZ         4.5640  -17.4840    2.7580 C.ar   35  PHE35      -0.0000
     48  N          1.5180  -22.5990    5.4810 N.3    40  HIS40      -0.1226
     49  CA         1.3860  -21.3600    6.2490 C.3    40  HIS40       0.1752
     50  C         -0.0150  -21.1500    6.7730 C.2    40  HIS40       0.2595
     51  O         -0.2130  -20.3510    7.6730 O.2    40  HIS40      -0.2718
     52  CB         1.8770  -20.1490    5.4270 C.3    40  HIS40       0.0759
     53  CG         1.1080  -19.8940    4.1620 C.ar   40  HIS40       0.0818
     54  ND1        0.9730  -20.8290    3.1560 N.ar   40  HIS40      -0.2268
     55  CD2        0.4840  -18.7770    3.7180 C.ar   40  HIS40       0.1154
     56  CE1        0.2990  -20.2980    2.1490 C.ar   40  HIS40       0.1986
     57  NE2       -0.0070  -19.0540    2.4660 N.ar   40  HIS40      -0.2212
     58  N         -0.9590  -21.9120    6.2400 N.am   41  LYS41      -0.1980
     59  CA        -2.3460  -21.8220    6.6370 C.3    41  LYS41       0.1596
     60  C         -2.7220  -23.0630    7.3960 C.2    41  LYS41       0.2287
     61  O         -3.8960  -23.2960    7.6130 O.2    41  LYS41      -0.2864
     62  CB        -3.2280  -21.6650    5.4010 C.3    41  LYS41       0.0298
     63  CG        -2.8700  -20.4930    4.5130 C.3    41  LYS41       0.0038
     64  CD        -2.8840  -19.1830    5.2850 C.3    41  LYS41       0.0206
     65  CE        -2.6000  -18.0120    4.3430 C.3    41  LYS41       0.1093
     66  NZ        -2.4870  -16.6890    5.0180 N.3    41  LYS41      -0.1314
     67  N         -1.5350  -16.3090    9.5480 N.3    52  GLY52      -0.1210
     68  CA        -1.0040  -17.2620    8.5850 C.3    52  GLY52       0.1956
     69  C         -0.0100  -16.6840    7.5960 C.2    52  GLY52       0.2612
     70  O         -0.1560  -16.8480    6.4010 O.2    52  GLY52      -0.2717
     71  N          1.0150  -16.0200    8.1220 N.am   53  GLN53      -0.1965
     72  CA         2.0710  -15.4140    7.3180 C.3    53  GLN53       0.1733
     73  C          3.4080  -15.7750    7.8980 C.2    53  GLN53       0.2616
     74  O          3.4600  -16.3360    8.9940 O.2    53  GLN53      -0.2715
     75  CB         1.9780  -13.8860    7.3450 C.3    53  GLN53       0.0408
     76  CG         0.7190  -13.2780    6.7690 C.3    53  GLN53       0.0908
     77  CD         0.8180  -11.7690    6.6670 C.2    53  GLN53       0.2608
     78  OE1        0.7230  -11.2070    5.5920 O.2    53  GLN53      -0.2717
     79  NE2        1.0580  -11.1140    7.7930 N.am   53  GLN53      -0.0878
     80  N          4.4770  -15.4680    7.1630 N.am   54  VAL54      -0.1964
     81  CA         5.8520  -15.6900    7.6210 C.3    54  VAL54       0.1712
     82  C          6.5580  -14.3190    7.5630 C.2    54  VAL54       0.2458
     83  O          6.2330  -13.5160    6.6810 O.2    54  VAL54      -0.2730
     84  CB         6.5990  -16.7610    6.7670 C.3    54  VAL54       0.0289
     85  CG1        5.9180  -18.1260    6.9240 C.3    54  VAL54       0.0023
     86  CG2        6.6540  -16.3590    5.2820 C.3    54  VAL54       0.0023
     87  N          7.5210  -14.0410    8.4700 N.am   55  PRO55      -0.2727
     88  CA         8.0450  -14.8710    9.5600 C.3    55  PRO55       0.1402
     89  C          7.1880  -15.0160   10.7790 C.2    55  PRO55       0.2269
     90  O          6.2310  -14.2740   10.9450 O.2    55  PRO55      -0.2865
     91  CB         9.3540  -14.1610    9.9220 C.3    55  PRO55       0.0296
     92  CG         9.0120  -12.7410    9.7260 C.3    55  PRO55       0.0237
     93  CD         8.2290  -12.7450    8.4290 C.3    55  PRO55       0.0939
     94  N          5.2370  -10.7980   12.8390 N.3    66  GLU66      -0.1231
     95  CA         5.4510   -9.4360   12.3480 C.3    66  GLU66       0.1699
     96  C          6.9270   -9.1660   12.5280 C.2    66  GLU66       0.2593
     97  O          7.3670   -8.9750   13.6550 O.2    66  GLU66      -0.2718
     98  CB         4.6080   -8.4200   13.1170 C.3    66  GLU66       0.0402
     99  CG         4.1530   -7.2690   12.2740 C.3    66  GLU66       0.1161
    100  CD         3.0880   -7.6470   11.2750 C.2    66  GLU66       0.3649
    101  OE1        2.1970   -8.4390   11.6300 O.co2  66  GLU66      -0.2457
    102  OE2        3.1200   -7.1350   10.1420 O.co2  66  GLU66      -0.2457
    103  N          7.6740   -9.1430   11.4230 N.am   67  SER67      -0.1938
    104  CA         9.1270   -8.9690   11.4330 C.3    67  SER67       0.2055
    105  C          9.7090   -7.9430   12.3140 C.2    67  SER67       0.2642
    106  O         10.4980   -8.2920   13.1820 O.2    67  SER67      -0.2714
    107  CB         9.6710   -8.8020   10.0170 C.3    67  SER67       0.2130
    108  OG         9.1640   -7.6290    9.4100 O.3    67  SER67      -0.2179
    109  N          9.3340   -6.6820   12.1510 N.am   68  ARG68      -0.1977
    110  CA         9.9160   -5.6420   12.9910 C.3    68  ARG68       0.1597
    111  C          9.7090   -5.8230   14.4800 C.2    68  ARG68       0.2287
    112  O         10.4450   -5.2320   15.2550 O.2    68  ARG68      -0.2864
    113  CB         9.4760   -4.2690   12.5230 C.3    68  ARG68       0.0334
    114  CG        10.0200   -3.9480   11.1640 C.3    68  ARG68       0.0492
    115  CD         9.3510   -2.7410   10.5710 C.3    68  ARG68       0.2205
    116  NE         9.6710   -2.6310    9.1510 N.pl3  68  ARG68      -0.0865
    117  CZ         9.0420   -3.2820    8.1780 C.cat  68  ARG68       0.5346
    118  NH1        8.0300   -4.0980    8.4470 N.pl3  68  ARG68       0.1354
    119  NH2        9.4680   -3.1600    6.9300 N.pl3  68  ARG68       0.1354
@<TRIPOS>BOND
     1     7     8    1
     2     7     6    1
     3    28    27   ar
     4    28    26   ar
     5    27    25   ar
     6     6     5    1
     7    26    24   ar
     8    25    22   ar
     9     5     2    1
    10    24    22   ar
    11    24    23   ar
    12     4     3    2
    13    39    40    2
    14    39    38    1
    15    22    20   ar
    16    41    38    1
    17    41    42    1
    18     2     3    1
    19     2     1    1
    20     3     9   am
    21    44    42   ar
    22    44    46   ar
    23    38    37    1
    24    23    21   ar
    25    42    43   ar
    26    20    21   ar
    27    20    19    1
    28    46    47   ar
    29     9    10    1
    30    10    13    1
    31    10    11    1
    32    19    16    1
    33    15    11   am
    34    15    16    1
    35    56    57   ar
    36    56    54   ar
    37    13    14    1
    38    43    45   ar
    39    57    55   ar
    40    11    12    2
    41    47    45   ar
    42    16    17    1
    43    54    53   ar
    44    55    53   ar
    45    36    34   am
    46    17    29   am
    47    17    18    2
    48    53    52    1
    49    65    66    1
    50    65    64    1
    51    29    30    1
    52    63    64    1
    53    63    62    1
    54    34    35    2
    55    34    33    1
    56    86    84    1
    57    62    59    1
    58    52    49    1
    59    48    49    1
    60    33    30    1
    61    78    77    2
    62    30    31    1
    63    58    59    1
    64    58    50   am
    65    49    50    1
    66    70    69    2
    67    59    60    1
    68    31    32    2
    69    77    76    1
    70    77    79   am
    71    83    82    2
    72    84    85    1
    73    84    81    1
    74    76    75    1
    75    50    51    2
    76   119   117    1
    77    80    81    1
    78    80    73   am
    79    72    75    1
    80    72    73    1
    81    72    71    1
    82    60    61    2
    83    82    81    1
    84    82    87   am
    85    69    71   am
    86    69    68    1
    87    73    74    2
    88   117   118    1
    89   117   116    2
    90    93    87    1
    91    93    92    1
    92    87    88    1
    93    68    67    1
    94   116   115    1
    95   108   107    1
    96    88    91    1
    97    88    89    1
    98    92    91    1
    99   107   104    1
   100   102   100   ar
   101   115   114    1
   102    89    90    2
   103   114   113    1
   104   100   101   ar
   105   100    99    1
   106   103   104    1
   107   103    96   am
   108   104   105    1
   109   109   105   am
   110   109   110    1
   111    99    98    1
   112   105   106    2
   113    95    96    1
   114    95    94    1
   115    95    98    1
   116   113   110    1
   117    96    97    2
   118   110   111    1
   119   111   112    2
