@<TRIPOS>MOLECULE
tmp/1axmE00.pdb
 81 76 0 0 0
SMALL
GASTEIGER

@<TRIPOS>ATOM
      1  N         37.0610   24.8320   98.8440 N.3     9  ASN9       -0.1240
      2  CA        36.5450   24.1020   99.9850 C.3     9  ASN9        0.1653
      3  C         36.5170   22.6200   99.6270 C.2     9  ASN9        0.2266
      4  O         35.6090   22.1490   98.9100 O.2     9  ASN9       -0.2867
      5  CB        35.1320   24.5770  100.3500 C.3     9  ASN9        0.1155
      6  CG        34.6200   23.9160  101.6380 C.2     9  ASN9        0.2627
      7  OD1       35.3670   23.1400  102.2740 O.2     9  ASN9       -0.2716
      8  ND2       33.3780   24.2350  102.0490 N.am    9  ASN9       -0.0877
      9  N         29.8950   21.1520   98.8980 N.3   102  LYS102     -0.1231
     10  CA        30.1870   20.8980  100.3050 C.3   102  LYS102      0.1693
     11  C         31.5730   20.2990  100.4560 C.2   102  LYS102      0.2592
     12  O         32.1960   19.8900   99.4720 O.2   102  LYS102     -0.2718
     13  CB        29.1700   19.9330  100.9000 C.3   102  LYS102      0.0285
     14  CG        27.7200   20.2850  100.5920 C.3   102  LYS102      0.0035
     15  CD        26.7980   19.5570  101.4990 C.3   102  LYS102      0.0206
     16  CE        25.5230   19.2800  100.8180 C.3   102  LYS102      0.1093
     17  NZ        24.7090   18.3380  101.6470 N.3   102  LYS102     -0.1314
     18  N         32.0440   20.2200  101.6900 N.am  103  LYS103     -0.1966
     19  CA        33.3540   19.6700  101.9550 C.3   103  LYS103      0.1728
     20  C         33.4650   18.2660  101.3760 C.2   103  LYS103      0.2616
     21  O         34.4990   17.8870  100.7990 O.2   103  LYS103     -0.2715
     22  CB        33.6030   19.6290  103.4690 C.3   103  LYS103      0.0311
     23  CG        33.9360   20.9710  104.0510 C.3   103  LYS103      0.0038
     24  CD        35.1370   20.9090  104.9830 C.3   103  LYS103      0.0206
     25  CE        35.8040   22.2840  105.1340 C.3   103  LYS103      0.1093
     26  NZ        36.6850   22.3160  106.3310 N.3   103  LYS103     -0.1314
     27  N         32.3670   17.5180  101.4780 N.am  104  ASN104     -0.1972
     28  CA        32.3330   16.1290  101.0150 C.3   104  ASN104      0.1688
     29  C         32.2670   15.9330   99.5040 C.2   104  ASN104      0.2292
     30  O         32.2800   14.8120   99.0390 O.2   104  ASN104     -0.2864
     31  CB        31.1870   15.3690  101.6900 C.3   104  ASN104      0.1181
     32  CG        29.8050   15.7130  101.0960 C.2   104  ASN104      0.2629
     33  OD1       29.3180   15.0280  100.1760 O.2   104  ASN104     -0.2716
     34  ND2       29.1640   16.7500  101.6290 N.am  104  ASN104     -0.0877
     35  N         26.0900   22.0070   97.2560 N.3   108  LYS108     -0.1245
     36  CA        25.2990   22.6240   98.3320 C.3   108  LYS108      0.1561
     37  C         24.0790   23.3240   97.7750 C.2   108  LYS108      0.2260
     38  O         24.1640   24.0630   96.7830 O.2   108  LYS108     -0.2867
     39  CB        26.1390   23.6270   99.1150 C.3   108  LYS108      0.0271
     40  CG        25.3690   24.3060  100.2270 C.3   108  LYS108      0.0035
     41  CD        26.2910   25.0820  101.1650 C.3   108  LYS108      0.0206
     42  CE        27.2290   24.1530  101.8950 C.3   108  LYS108      0.1093
     43  NZ        27.9690   24.8440  102.9770 N.3   108  LYS108     -0.1314
     44  N         21.1470   27.2010  101.0200 N.3   112  ARG112     -0.1245
     45  CA        22.0490   26.9160  102.1320 C.3   112  ARG112      0.1563
     46  C         23.4180   27.5400  101.8770 C.2   112  ARG112      0.2260
     47  O         24.3620   27.2880  102.6310 O.2   112  ARG112     -0.2867
     48  CB        22.1770   25.4120  102.3580 C.3   112  ARG112      0.0307
     49  CG        20.8240   24.7400  102.6120 C.3   112  ARG112      0.0489
     50  CD        20.8920   23.1980  102.4950 C.3   112  ARG112      0.2205
     51  NE        19.5790   22.6130  102.1600 N.pl3 112  ARG112     -0.0865
     52  CZ        19.3850   21.3680  101.7130 C.cat 112  ARG112      0.5346
     53  NH1       20.4120   20.5120  101.5370 N.pl3 112  ARG112      0.1354
     54  NH2       18.1500   21.0050  101.3820 N.pl3 112  ARG112      0.1354
     55  N         30.4400   34.8930  100.7660 N.3   116  GLY116     -0.1210
     56  CA        31.4780   34.6550  101.7420 C.3   116  GLY116      0.1956
     57  C         31.9310   33.2220  102.0050 C.2   116  GLY116      0.2612
     58  O         33.1010   32.9990  102.2680 O.2   116  GLY116     -0.2717
     59  N         31.0340   32.2450  101.9290 N.am  117  GLN117     -0.1965
     60  CA        31.3920   30.8620  102.2030 C.3   117  GLN117      0.1733
     61  C         32.5800   30.4210  101.4010 C.2   117  GLN117      0.2616
     62  O         32.8170   30.9210  100.3020 O.2   117  GLN117     -0.2715
     63  CB        30.2440   29.9500  101.8890 C.3   117  GLN117      0.0408
     64  CG        29.0430   30.1610  102.7560 C.3   117  GLN117      0.0908
     65  CD        27.8940   29.2350  102.3870 C.2   117  GLN117      0.2608
     66  OE1       27.4050   29.2760  101.2590 O.2   117  GLN117     -0.2717
     67  NE2       27.4750   28.3810  103.3150 N.am  117  GLN117     -0.0878
     68  N         33.3390   29.4880  101.9620 N.am  118  LYS118     -0.1963
     69  CA        34.5120   28.9280  101.3010 C.3   118  LYS118      0.1728
     70  C         33.9640   28.0230  100.1660 C.2   118  LYS118      0.2616
     71  O         34.5920   27.8170   99.1110 O.2   118  LYS118     -0.2715
     72  CB        35.2720   28.0810  102.3210 C.3   118  LYS118      0.0311
     73  CG        36.6610   27.6120  101.8700 C.3   118  LYS118      0.0038
     74  CD        37.2940   26.6470  102.8870 C.3   118  LYS118      0.0206
     75  CE        38.6350   26.1040  102.3730 C.3   118  LYS118      0.1093
     76  NZ        39.2360   25.0540  103.2610 N.3   118  LYS118     -0.1314
     77  N         32.7550   27.5280  100.4110 N.am  119  ALA119     -0.1977
     78  CA        32.0370   26.6430   99.5380 C.3   119  ALA119      0.1597
     79  C         31.7270   27.1430   98.1430 C.2   119  ALA119      0.2287
     80  O         31.5360   26.3070   97.2400 O.2   119  ALA119     -0.2864
     81  CB        30.7360   26.1980  100.2260 C.3   119  ALA119      0.0319
@<TRIPOS>BOND
     1    38    37    2
     2    80    79    2
     3    35    36    1
     4    37    36    1
     5    79    78    1
     6    36    39    1
     7     1     2    1
     8     9    10    1
     9     4     3    2
    10    30    29    2
    11    71    70    2
    12    39    40    1
    13    12    11    2
    14    29    28    1
    15    78    81    1
    16    78    77    1
    17     3     2    1
    18     2     5    1
    19    70    77   am
    20    70    69    1
    21    33    32    2
    22    40    41    1
    23    62    61    2
    24    10    11    1
    25    10    13    1
    26     5     6    1
    27    11    18   am
    28    14    13    1
    29    14    15    1
    30    55    56    1
    31    21    20    2
    32    16    15    1
    33    16    17    1
    34    28    27    1
    35    28    31    1
    36    44    45    1
    37    32    34   am
    38    32    31    1
    39    41    42    1
    40    66    65    2
    41    69    68    1
    42    69    72    1
    43    20    27   am
    44    20    19    1
    45    54    52    1
    46    61    68   am
    47    61    60    1
    48    53    52    1
    49     6     8   am
    50     6     7    2
    51    18    19    1
    52    52    51    2
    53    56    57    1
    54    73    72    1
    55    73    74    1
    56    46    45    1
    57    46    47    2
    58    63    60    1
    59    63    64    1
    60    42    43    1
    61    59    57   am
    62    59    60    1
    63    19    22    1
    64    57    58    2
    65    45    48    1
    66    51    50    1
    67    48    49    1
    68    75    74    1
    69    75    76    1
    70    65    64    1
    71    65    67   am
    72    50    49    1
    73    22    23    1
    74    23    24    1
    75    24    25    1
    76    25    26    1
