@<TRIPOS>MOLECULE
tmp/1axrA01.pdb
 130 123 0 0 0
SMALL
GASTEIGER

@<TRIPOS>ATOM
      1  N         28.7300   23.6790   30.1550 N.3   122  GLY122     -0.1210
      2  CA        29.0200   22.4280   29.4770 C.3   122  GLY122      0.1956
      3  C         29.7910   21.3590   30.2120 C.2   122  GLY122      0.2611
      4  O         29.4480   20.1780   30.1190 O.2   122  GLY122     -0.2717
      5  N         30.8510   21.7520   30.9040 N.am  123  LEU123     -0.1979
      6  CA        31.6520   20.7950   31.6630 C.3   123  LEU123      0.1596
      7  C         30.7910   20.0730   32.6930 C.2   123  LEU123      0.2287
      8  O         30.6940   18.8470   32.6830 O.2   123  LEU123     -0.2864
      9  CB        32.8070   21.5210   32.3630 C.3   123  LEU123      0.0297
     10  CG        33.9400   20.7070   32.9930 C.3   123  LEU123      0.0022
     11  CD1       34.6250   19.8430   31.9680 C.3   123  LEU123      0.0001
     12  CD2       34.9390   21.6540   33.5940 C.3   123  LEU123      0.0001
     13  N         27.7690   17.9080   31.3710 N.3   126  LEU126     -0.1245
     14  CA        28.2780   16.6950   30.7490 C.3   126  LEU126      0.1561
     15  C         28.3890   15.6420   31.8500 C.2   126  LEU126      0.2260
     16  O         27.8850   14.5240   31.7170 O.2   126  LEU126     -0.2867
     17  CB        29.6550   16.9830   30.1420 C.3   126  LEU126      0.0270
     18  CG        30.4420   15.8040   29.6110 C.3   126  LEU126      0.0019
     19  CD1       29.6990   15.1950   28.4500 C.3   126  LEU126      0.0001
     20  CD2       31.8160   16.2780   29.1940 C.3   126  LEU126      0.0001
     21  N         35.1820   27.9960   32.4990 N.3   271  ASN271     -0.1240
     22  CA        36.3570   27.5180   31.7690 C.3   271  ASN271      0.1653
     23  C         37.3320   28.6620   31.4580 C.2   271  ASN271      0.2266
     24  O         37.3250   29.2410   30.3640 O.2   271  ASN271     -0.2867
     25  CB        35.9720   26.7380   30.5030 C.3   271  ASN271      0.1155
     26  CG        36.0730   25.2330   30.6950 C.2   271  ASN271      0.2627
     27  OD1       37.1680   24.6640   30.7070 O.2   271  ASN271     -0.2716
     28  ND2       34.9320   24.5830   30.8590 N.am  271  ASN271     -0.0877
     29  N         39.0000   18.9560   27.4960 N.3   364  HIS364     -0.1226
     30  CA        37.7710   19.6470   27.0980 C.3   364  HIS364      0.1752
     31  C         37.8440   20.8600   26.1630 C.2   364  HIS364      0.2596
     32  O         36.8370   21.2150   25.5470 O.2   364  HIS364     -0.2718
     33  CB        36.9800   20.0040   28.3450 C.3   364  HIS364      0.0759
     34  CG        36.3570   18.8200   29.0040 C.ar  364  HIS364      0.0818
     35  ND1       35.0740   18.4100   28.7110 N.ar  364  HIS364     -0.2268
     36  CD2       36.8490   17.9170   29.8830 C.ar  364  HIS364      0.1154
     37  CE1       34.8080   17.2970   29.3720 C.ar  364  HIS364      0.1986
     38  NE2       35.8650   16.9780   30.0920 N.ar  364  HIS364     -0.2212
     39  N         39.0080   21.5030   26.0760 N.am  365  THR365     -0.1953
     40  CA        39.1890   22.6550   25.2090 C.3   365  THR365      0.1897
     41  C         40.6750   22.8850   24.9350 C.2   365  THR365      0.2313
     42  O         41.5170   22.6530   25.8080 O.2   365  THR365     -0.2863
     43  CB        38.5730   23.9220   25.8270 C.3   365  THR365      0.1794
     44  OG1       38.6530   25.0050   24.8910 O.3   365  THR365     -0.2208
     45  CG2       39.2960   24.3120   27.1070 C.3   365  THR365      0.0378
     46  N         36.7670   15.5570   23.2620 N.3   442  VAL442     -0.1245
     47  CA        35.3200   15.4910   23.3320 C.3   442  VAL442      0.1561
     48  C         34.5660   15.5380   21.9970 C.2   442  VAL442      0.2260
     49  O         33.3320   15.7050   21.9570 O.2   442  VAL442     -0.2867
     50  CB        34.8270   16.5730   24.3180 C.3   442  VAL442      0.0252
     51  CG1       35.3320   16.2330   25.7070 C.3   442  VAL442      0.0019
     52  CG2       35.3650   17.9520   23.9220 C.3   442  VAL442      0.0019
     53  N         31.1440   13.7620   22.9290 N.3   471  ASN471     -0.1240
     54  CA        30.1540   14.0060   23.9870 C.3   471  ASN471      0.1653
     55  C         28.7330   13.5620   23.6960 C.2   471  ASN471      0.2266
     56  O         28.3170   13.4270   22.5410 O.2   471  ASN471     -0.2867
     57  CB        30.1160   15.4890   24.3990 C.3   471  ASN471      0.1155
     58  CG        31.4150   15.9790   25.0340 C.2   471  ASN471      0.2627
     59  OD1       31.5820   17.1730   25.2540 O.2   471  ASN471     -0.2716
     60  ND2       32.3590   15.0780   25.2620 N.am  471  ASN471     -0.0877
     61  N         27.1290   30.1380   27.4880 N.3   556  ARG556     -0.1245
     62  CA        27.9860   31.0930   28.2030 C.3   556  ARG556      0.1563
     63  C         28.5380   32.1680   27.2740 C.2   556  ARG556      0.2260
     64  O         29.0590   31.8600   26.2090 O.2   556  ARG556     -0.2867
     65  CB        29.1270   30.3920   28.9670 C.3   556  ARG556      0.0307
     66  CG        30.3640   30.0420   28.1390 C.3   556  ARG556      0.0489
     67  CD        31.3810   29.2070   28.9310 C.3   556  ARG556      0.2205
     68  NE        32.6290   29.0070   28.1970 N.pl3 556  ARG556     -0.0865
     69  CZ        33.2840   27.8510   28.1250 C.cat 556  ARG556      0.5346
     70  NH1       32.8240   26.7790   28.7500 N.pl3 556  ARG556      0.1354
     71  NH2       34.4090   27.7680   27.4330 N.pl3 556  ARG556      0.1354
     72  N         34.4060   33.6940   21.6140 N.3   560  TYR560     -0.1227
     73  CA        34.5410   32.6290   20.6300 C.3   560  TYR560      0.1736
     74  C         33.2050   31.9640   20.3010 C.2   560  TYR560      0.2595
     75  O         33.1160   31.1840   19.3500 O.2   560  TYR560     -0.2718
     76  CB        35.5930   31.5970   21.0680 C.3   560  TYR560      0.0548
     77  CG        35.0670   30.4820   21.9460 C.ar  560  TYR560     -0.0200
     78  CD1       34.4890   29.3390   21.3910 C.ar  560  TYR560     -0.0009
     79  CD2       35.1290   30.5760   23.3330 C.ar  560  TYR560     -0.0009
     80  CE1       33.9790   28.3280   22.1850 C.ar  560  TYR560      0.0417
     81  CE2       34.6230   29.5580   24.1460 C.ar  560  TYR560      0.0417
     82  CZ        34.0480   28.4420   23.5620 C.ar  560  TYR560      0.1957
     83  OH        33.5420   27.4560   24.3690 O.3   560  TYR560     -0.2866
     84  N         32.1840   32.2080   21.1190 N.am  561  LYS561     -0.1980
     85  CA        30.8610   31.6400   20.8570 C.3   561  LYS561      0.1596
     86  C         30.1760   32.5450   19.8310 C.2   561  LYS561      0.2287
     87  O         29.2390   32.1400   19.1350 O.2   561  LYS561     -0.2864
     88  CB        30.0200   31.5650   22.1340 C.3   561  LYS561      0.0298
     89  CG        30.1020   30.2380   22.8640 C.3   561  LYS561      0.0038
     90  CD        31.2850   30.1660   23.8060 C.3   561  LYS561      0.0206
     91  CE        30.9970   29.2690   24.9990 C.3   561  LYS561      0.1093
     92  NZ        30.4740   27.9220   24.6200 N.3   561  LYS561     -0.1314
     93  N         37.2450   26.5530   17.5870 N.3   658  THR658     -0.1203
     94  CA        37.1870   27.0430   18.9680 C.3   658  THR658      0.1994
     95  C         36.3360   26.1750   19.9010 C.2   658  THR658      0.2618
     96  O         36.7840   25.7790   20.9760 O.2   658  THR658     -0.2717
     97  CB        36.6930   28.4990   19.0360 C.3   658  THR658      0.1784
     98  OG1       35.3550   28.5890   18.5380 O.3   658  THR658     -0.2211
     99  CG2       37.5900   29.4030   18.2350 C.3   658  THR658      0.0376
    100  N         35.0890   25.9410   19.5080 N.am  659  GLU659     -0.1965
    101  CA        34.1870   25.1090   20.2900 C.3   659  GLU659      0.1733
    102  C         34.6800   23.6770   20.1740 C.2   659  GLU659      0.2616
    103  O         34.5190   23.0340   19.1410 O.2   659  GLU659     -0.2715
    104  CB        32.7500   25.2250   19.7730 C.3   659  GLU659      0.0429
    105  CG        31.7020   24.7210   20.7460 C.3   659  GLU659      0.1163
    106  CD        31.6700   25.5230   22.0520 C.2   659  GLU659      0.3649
    107  OE1       30.9730   26.5640   22.1020 O.co2 659  GLU659     -0.2457
    108  OE2       32.3440   25.1090   23.0290 O.co2 659  GLU659     -0.2457
    109  N         35.2840   23.1770   21.2400 N.am  660  ALA660     -0.1963
    110  CA        35.8130   21.8270   21.2400 C.3   660  ALA660      0.1728
    111  C         34.7780   20.7860   20.8670 C.2   660  ALA660      0.2617
    112  O         35.1040   19.7960   20.2210 O.2   660  ALA660     -0.2715
    113  CB        36.4050   21.5070   22.5880 C.3   660  ALA660      0.0334
    114  N         33.5470   20.9840   21.3250 N.am  661  SER661     -0.1936
    115  CA        32.4690   20.0600   21.0260 C.3   661  SER661      0.2055
    116  C         31.0960   20.6910   21.0290 C.2   661  SER661      0.2644
    117  O         30.4080   20.7080   20.0140 O.2   661  SER661     -0.2714
    118  CB        32.4500   18.8830   21.9980 C.3   661  SER661      0.2130
    119  OG        31.2450   18.1120   21.8570 O.3   661  SER661     -0.2179
    120  N         30.6900   21.1940   22.1810 N.am  662  GLY662     -0.1939
    121  CA        29.3650   21.7630   22.2910 C.3   662  GLY662      0.2014
    122  C         28.4510   20.6230   22.7190 C.2   662  GLY662      0.2639
    123  O         28.7600   19.4420   22.4910 O.2   662  GLY662     -0.2714
    124  N         27.3510   20.9810   23.3770 N.am  663  THR663     -0.1950
    125  CA        26.3570   20.0310   23.8700 C.3   663  THR663      0.1897
    126  C         24.9690   20.6200   23.6720 C.2   663  THR663      0.2313
    127  O         23.9960   19.8930   23.4070 O.2   663  THR663     -0.2863
    128  CB        26.5860   19.6670   25.3720 C.3   663  THR663      0.1794
    129  OG1       26.9340   20.8470   26.1150 O.3   663  THR663     -0.2208
    130  CG2       27.7030   18.6300   25.5150 C.3   663  THR663      0.0378
@<TRIPOS>BOND
     1    93    94    1
     2    99    97    1
     3    98    97    1
     4    94    97    1
     5    94    95    1
     6    87    86    2
     7   103   102    2
     8    75    74    2
     9   100    95   am
    10   100   101    1
    11   104   101    1
    12   104   105    1
    13    86    85    1
    14    95    96    2
    15   117   116    2
    16   102   101    1
    17   102   109   am
    18   112   111    2
    19    74    73    1
    20    74    84   am
    21    73    76    1
    22    73    72    1
    23   105   106    1
    24    85    84    1
    25    85    88    1
    26   111   110    1
    27   111   114   am
    28   115   116    1
    29   115   114    1
    30   115   118    1
    31   116   120   am
    32    76    77    1
    33   109   110    1
    34   110   113    1
    35    78    77   ar
    36    78    80   ar
    37   119   118    1
    38    77    79   ar
    39    49    48    2
    40    48    47    1
    41   106   107   ar
    42   106   108   ar
    43    88    89    1
    44   120   121    1
    45    80    82   ar
    46   121   122    1
    47   123   122    2
    48    56    55    2
    49   122   124   am
    50    89    90    1
    51    53    54    1
    52    46    47    1
    53    47    50    1
    54    79    81   ar
    55   124   125    1
    56   127   126    2
    57    82    81   ar
    58    82    83    1
    59   126   125    1
    60    55    54    1
    61    90    91    1
    62   125   128    1
    63    52    50    1
    64    54    57    1
    65    50    51    1
    66    57    58    1
    67    92    91    1
    68    44    43    1
    69    41    40    1
    70    41    42    2
    71    58    59    2
    72    58    60   am
    73    40    43    1
    74    40    39    1
    75   128   130    1
    76   128   129    1
    77    32    31    2
    78    43    45    1
    79    39    31   am
    80    31    30    1
    81    64    63    2
    82    30    29    1
    83    30    33    1
    84    63    62    1
    85    71    69    1
    86    61    62    1
    87    69    68    2
    88    69    70    1
    89    66    67    1
    90    66    65    1
    91    68    67    1
    92    62    65    1
    93    33    34    1
    94    19    18    1
    95    35    34   ar
    96    35    37   ar
    97    34    36   ar
    98    20    18    1
    99    37    38   ar
   100     2     1    1
   101     2     3    1
   102    18    17    1
   103    36    38   ar
   104     4     3    2
   105    17    14    1
   106     3     5   am
   107    24    23    2
   108    25    26    1
   109    25    22    1
   110    26    27    2
   111    26    28   am
   112    14    13    1
   113    14    15    1
   114     5     6    1
   115    23    22    1
   116     6     9    1
   117     6     7    1
   118    16    15    2
   119    22    21    1
   120    11    10    1
   121     9    10    1
   122     8     7    2
   123    10    12    1
