@<TRIPOS>MOLECULE
tmp/1axsD00.pdb
 110 108 0 0 0
SMALL
GASTEIGER

@<TRIPOS>ATOM
      1  N         28.7310   86.2990  123.9140 N.3    35  GLU35      -0.1245
      2  CA        29.6600   85.4360  124.6220 C.3    35  GLU35       0.1567
      3  C         30.7840   85.0960  123.6720 C.2    35  GLU35       0.2260
      4  O         30.6240   85.2070  122.4580 O.2    35  GLU35      -0.2867
      5  CB        28.9550   84.1480  125.0310 C.3    35  GLU35       0.0388
      6  CG        27.5770   84.3770  125.5650 C.3    35  GLU35       0.1160
      7  CD        27.6430   85.0510  126.8980 C.2    35  GLU35       0.3649
      8  OE1       28.6130   84.7690  127.6370 O.co2  35  GLU35      -0.2457
      9  OE2       26.7450   85.8630  127.2070 O.co2  35  GLU35      -0.2457
     10  N         33.7790   81.9480  123.2210 N.3    37  VAL37      -0.1245
     11  CA        34.2830   80.6860  123.7570 C.3    37  VAL37       0.1561
     12  C         35.3950   80.0330  122.9240 C.2    37  VAL37       0.2260
     13  O         35.3870   80.0530  121.6970 O.2    37  VAL37      -0.2867
     14  CB        33.1120   79.6790  124.0090 C.3    37  VAL37       0.0252
     15  CG1       31.7700   80.3510  123.7260 C.3    37  VAL37       0.0019
     16  CG2       33.2900   78.4240  123.1620 C.3    37  VAL37       0.0019
     17  N         34.9650   79.0890  128.3330 N.3    47  TRP47      -0.1241
     18  CA        34.3630   80.4300  128.3450 C.3    47  TRP47       0.1605
     19  C         35.3540   81.5910  128.5150 C.2    47  TRP47       0.2264
     20  O         35.9930   81.7340  129.5650 O.2    47  TRP47      -0.2867
     21  CB        33.3090   80.5110  129.4460 C.3    47  TRP47       0.0550
     22  CG        32.4040   81.7060  129.3410 C.ar   47  TRP47       0.0003
     23  CD1       31.4350   81.9260  128.3990 C.ar   47  TRP47       0.0946
     24  CD2       32.3500   82.8210  130.2380 C.ar   47  TRP47       0.0152
     25  NE1       30.7790   83.1090  128.6570 N.ar   47  TRP47      -0.2442
     26  CE2       31.3210   83.6790  129.7830 C.ar   47  TRP47       0.0810
     27  CE3       33.0700   83.1800  131.3900 C.ar   47  TRP47       0.0012
     28  CZ2       30.9970   84.8740  130.4360 C.ar   47  TRP47       0.0191
     29  CZ3       32.7490   84.3650  132.0370 C.ar   47  TRP47       0.0001
     30  CH2       31.7190   85.1970  131.5580 C.ar   47  TRP47       0.0015
     31  N         32.0850   87.7800  128.1290 N.3    50  GLU50      -0.1245
     32  CA        30.9930   88.3440  127.3500 C.3    50  GLU50       0.1567
     33  C         31.0360   89.8740  127.2880 C.2    50  GLU50       0.2260
     34  O         31.7140   90.5170  128.0890 O.2    50  GLU50      -0.2867
     35  CB        29.6680   87.8900  127.9430 C.3    50  GLU50       0.0388
     36  CG        29.6250   87.9220  129.4530 C.3    50  GLU50       0.1160
     37  CD        28.2100   88.0030  129.9710 C.2    50  GLU50       0.3649
     38  OE1       27.2930   87.5500  129.2470 O.co2  50  GLU50      -0.2457
     39  OE2       28.0140   88.5230  131.0920 O.co2  50  GLU50      -0.2457
     40  N         28.7920   84.0000  120.5490 N.3    97  ALA97      -0.1245
     41  CA        27.4250   83.5380  120.5790 C.3    97  ALA97       0.1562
     42  C         26.5340   84.5480  121.2730 C.2    97  ALA97       0.2260
     43  O         26.9340   85.2030  122.2400 O.2    97  ALA97      -0.2867
     44  CB        27.3520   82.1870  121.2910 C.3    97  ALA97       0.0290
     45  N         23.7700   85.6060  123.7150 N.3    99  GLY99      -0.1210
     46  CA        23.1980   85.0660  124.9280 C.3    99  GLY99       0.1956
     47  C         21.8820   85.7220  125.2640 C.2    99  GLY99       0.2612
     48  O         21.0030   85.8480  124.4120 O.2    99  GLY99      -0.2717
     49  N         21.7520   86.1470  126.5140 N.am  100  HIS100     -0.1961
     50  CA        20.5310   86.7760  126.9670 C.3   100  HIS100      0.1787
     51  C         20.5200   88.2740  126.7540 C.2   100  HIS100      0.2621
     52  O         21.5140   88.8740  126.3410 O.2   100  HIS100     -0.2715
     53  CB        20.2790   86.4310  128.4470 C.3   100  HIS100      0.0785
     54  CG        21.0980   87.2200  129.4300 C.ar  100  HIS100      0.0821
     55  ND1       22.4680   87.1180  129.5230 N.ar  100  HIS100     -0.2267
     56  CD2       20.7250   88.0830  130.4090 C.ar  100  HIS100      0.1154
     57  CE1       22.9060   87.8810  130.5110 C.ar  100  HIS100      0.1986
     58  NE2       21.8670   88.4770  131.0640 N.ar  100  HIS100     -0.2212
     59  N         19.3540   88.8580  126.9910 N.am  101  SER101     -0.1936
     60  CA        19.1270   90.2950  126.9090 C.3   101  SER101      0.2055
     61  C         18.3560   90.4330  128.2120 C.2   101  SER101      0.2643
     62  O         17.8260   89.4350  128.7070 O.2   101  SER101     -0.2714
     63  CB        18.2470   90.6380  125.7010 C.3   101  SER101      0.2130
     64  OG        17.2090   91.5330  126.0380 O.3   101  SER101     -0.2179
     65  N         18.2860   91.6180  128.7960 N.am  102  TYR102     -0.1973
     66  CA        17.5610   91.7150  130.0570 C.3   102  TYR102      0.1639
     67  C         16.0460   91.8290  129.8990 C.2   102  TYR102      0.2290
     68  O         15.3770   92.4810  130.7010 O.2   102  TYR102     -0.2864
     69  CB        18.1080   92.8750  130.8940 C.3   102  TYR102      0.0560
     70  CG        19.3940   92.5280  131.6280 C.ar  102  TYR102     -0.0198
     71  CD1       19.4410   91.4660  132.5340 C.ar  102  TYR102     -0.0009
     72  CD2       20.5680   93.2590  131.4090 C.ar  102  TYR102     -0.0009
     73  CE1       20.6190   91.1400  133.2020 C.ar  102  TYR102      0.0417
     74  CE2       21.7470   92.9410  132.0710 C.ar  102  TYR102      0.0417
     75  CZ        21.7660   91.8820  132.9640 C.ar  102  TYR102      0.1957
     76  OH        22.9360   91.5600  133.6110 O.3   102  TYR102     -0.2866
     77  N         15.0420   85.8660  126.1210 N.3   105  TYR105     -0.1241
     78  CA        15.9740   84.7400  126.0440 C.3   105  TYR105      0.1605
     79  C         15.2020   83.4580  125.6790 C.2   105  TYR105      0.2264
     80  O         14.1830   83.1430  126.2970 O.2   105  TYR105     -0.2867
     81  CB        16.7020   84.5620  127.3850 C.3   105  TYR105      0.0534
     82  CG        17.8650   83.5960  127.3420 C.ar  105  TYR105     -0.0201
     83  CD1       19.0060   83.8780  126.5990 C.ar  105  TYR105     -0.0009
     84  CD2       17.8230   82.3950  128.0490 C.ar  105  TYR105     -0.0009
     85  CE1       20.0800   82.9870  126.5610 C.ar  105  TYR105      0.0417
     86  CE2       18.8870   81.5000  128.0180 C.ar  105  TYR105      0.0417
     87  CZ        20.0100   81.8020  127.2740 C.ar  105  TYR105      0.1957
     88  OH        21.0640   80.9250  127.2510 O.3   105  TYR105     -0.2866
     89  N         20.7740   80.4550  122.8300 N.3   108  ASP108     -0.1239
     90  CA        21.8810   81.1720  122.2420 C.3   108  ASP108      0.1674
     91  C         22.0460   80.8050  120.7820 C.2   108  ASP108      0.2266
     92  O         21.6920   79.7010  120.3500 O.2   108  ASP108     -0.2867
     93  CB        23.1450   80.8380  123.0140 C.3   108  ASP108      0.1410
     94  CG        22.8400   80.3730  124.4130 C.2   108  ASP108      0.3668
     95  OD1       22.5950   81.2480  125.2690 O.co2 108  ASP108     -0.2456
     96  OD2       22.8320   79.1460  124.6580 O.co2 108  ASP108     -0.2456
     97  N         24.9260   80.6410  117.7530 N.3   110  TRP110     -0.1241
     98  CA        26.3800   80.5890  117.6860 C.3   110  TRP110      0.1605
     99  C         26.9260   80.9880  116.3340 C.2   110  TRP110      0.2264
    100  O         26.2490   80.8480  115.3110 O.2   110  TRP110     -0.2867
    101  CB        26.9010   79.1820  118.0250 C.3   110  TRP110      0.0550
    102  CG        26.6030   78.6910  119.4320 C.ar  110  TRP110      0.0003
    103  CD1       25.3720   78.3910  119.9600 C.ar  110  TRP110      0.0946
    104  CD2       27.5600   78.3800  120.4510 C.ar  110  TRP110      0.0152
    105  NE1       25.5080   77.9120  121.2400 N.ar  110  TRP110     -0.2442
    106  CE2       26.8390   77.8930  121.5680 C.ar  110  TRP110      0.0810
    107  CE3       28.9610   78.4650  120.5280 C.ar  110  TRP110      0.0012
    108  CZ2       27.4680   77.4920  122.7510 C.ar  110  TRP110      0.0191
    109  CZ3       29.5910   78.0660  121.7070 C.ar  110  TRP110      0.0001
    110  CH2       28.8370   77.5840  122.8060 C.ar  110  TRP110      0.0015
@<TRIPOS>BOND
     1   100    99    2
     2    99    98    1
     3    98    97    1
     4    98   101    1
     5   101   102    1
     6   102   103   ar
     7   102   104   ar
     8   103   105   ar
     9    92    91    2
    10   104   107   ar
    11   104   106   ar
    12   107   109   ar
    13    40    41    1
    14    41    42    1
    15    41    44    1
    16    91    90    1
    17   105   106   ar
    18    42    43    2
    19   106   108   ar
    20    13    12    2
    21   109   110   ar
    22    90    89    1
    23    90    93    1
    24     4     3    2
    25   108   110   ar
    26    12    11    1
    27    93    94    1
    28    16    14    1
    29    10    11    1
    30     3     2    1
    31    45    46    1
    32    15    14    1
    33    11    14    1
    34     1     2    1
    35    48    47    2
    36    94    96   ar
    37    94    95   ar
    38     2     5    1
    39    46    47    1
    40     5     6    1
    41    47    49   am
    42     6     7    1
    43    79    78    1
    44    79    80    2
    45    63    64    1
    46    63    60    1
    47    78    77    1
    48    78    81    1
    49    52    51    2
    50    49    50    1
    51    85    83   ar
    52    85    87   ar
    53    83    82   ar
    54    51    50    1
    55    51    59   am
    56     7     9   ar
    57     7     8   ar
    58    60    59    1
    59    60    61    1
    60    50    53    1
    61    88    87    1
    62    87    86   ar
    63    33    32    1
    64    33    34    2
    65    82    81    1
    66    82    84   ar
    67    32    35    1
    68    32    31    1
    69    35    36    1
    70    86    84   ar
    71    61    62    2
    72    61    65   am
    73    17    18    1
    74    18    19    1
    75    18    21    1
    76    23    25   ar
    77    23    22   ar
    78    53    54    1
    79    19    20    2
    80    25    26   ar
    81    65    66    1
    82    38    37   ar
    83    22    21    1
    84    22    24   ar
    85    54    55   ar
    86    54    56   ar
    87    36    37    1
    88    55    57   ar
    89    26    24   ar
    90    26    28   ar
    91    67    66    1
    92    67    68    2
    93    37    39   ar
    94    66    69    1
    95    24    27   ar
    96    56    58   ar
    97    28    30   ar
    98    57    58   ar
    99    69    70    1
   100    27    29   ar
   101    72    70   ar
   102    72    74   ar
   103    30    29   ar
   104    70    71   ar
   105    74    75   ar
   106    71    73   ar
   107    75    73   ar
   108    75    76    1
