@<TRIPOS>MOLECULE
tmp/1ay6B01.pdb
 244 245 0 0 0
SMALL
GASTEIGER

@<TRIPOS>ATOM
      1  N         14.4190   -7.9610    9.2240 N.3    27  LEU27      -0.1231
      2  CA        15.4710   -8.2550   10.1580 C.3    27  LEU27       0.1693
      3  C         15.0830   -8.0030   11.6260 C.2    27  LEU27       0.2592
      4  O         14.9850   -8.8950   12.4590 O.2    27  LEU27      -0.2718
      5  CB        16.7420   -7.5090    9.7970 C.3    27  LEU27       0.0284
      6  CG        17.5630   -7.8980    8.5840 C.3    27  LEU27       0.0019
      7  CD1       18.9740   -7.4580    8.9420 C.3    27  LEU27       0.0001
      8  CD2       17.5200   -9.4240    8.2550 C.3    27  LEU27       0.0001
      9  N         14.5670   -6.7940   11.8960 N.am   28  CYS28      -0.1970
     10  CA        14.3200   -6.3350   13.3160 C.3    28  CYS28       0.1712
     11  C         13.6230   -4.9520   13.2170 C.2    28  CYS28       0.2296
     12  O         13.5640   -4.3210   12.1450 O.2    28  CYS28      -0.2864
     13  CB        15.7620   -6.0170   13.7750 C.3    28  CYS28       0.0983
     14  SG        16.7290   -7.3040   14.7130 S.3    28  CYS28      -0.0798
     15  N         22.5790   -6.8930   18.5370 N.3    43  HIS43      -0.1241
     16  CA        22.4170   -8.3000   18.0990 C.3    43  HIS43       0.1621
     17  C         21.7570   -8.4150   16.7410 C.2    43  HIS43       0.2264
     18  O         21.9290   -9.4630   16.0680 O.2    43  HIS43      -0.2867
     19  CB        21.7570   -9.1940   19.1540 C.3    43  HIS43       0.0745
     20  CG        20.2880   -9.2210   19.1820 C.ar   43  HIS43       0.0817
     21  ND1       19.5770   -8.5070   20.1380 N.ar   43  HIS43      -0.2268
     22  CD2       19.3410   -9.8420   18.4090 C.ar   43  HIS43       0.1154
     23  CE1       18.2730   -8.7600   19.9790 C.ar   43  HIS43       0.1986
     24  NE2       18.1390   -9.4710   18.8840 N.ar   43  HIS43      -0.2212
     25  N         25.9410  -11.0870   15.6230 N.3    47  TYR47      -0.1241
     26  CA        25.6770  -12.2000   16.5680 C.3    47  TYR47       0.1605
     27  C         26.4340  -13.4350   15.9880 C.2    47  TYR47       0.2264
     28  O         25.7980  -14.2750   15.3290 O.2    47  TYR47      -0.2867
     29  CB        24.2210  -12.4750   16.7670 C.3    47  TYR47       0.0534
     30  CG        24.0040  -13.2500   18.0550 C.ar   47  TYR47      -0.0201
     31  CD1       24.4920  -12.8350   19.2980 C.ar   47  TYR47      -0.0009
     32  CD2       23.3220  -14.4550   17.9550 C.ar   47  TYR47      -0.0009
     33  CE1       24.2870  -13.6260   20.4490 C.ar   47  TYR47       0.0417
     34  CE2       23.1370  -15.2610   19.0830 C.ar   47  TYR47       0.0417
     35  CZ        23.6370  -14.8310   20.3230 C.ar   47  TYR47       0.1957
     36  OH        23.4060  -15.7500   21.3210 O.3    47  TYR47      -0.2866
     37  N         25.4120  -17.1750   15.5560 N.3    50  TRP50      -0.1241
     38  CA        24.4320  -17.4900   14.5170 C.3    50  TRP50       0.1605
     39  C         25.0120  -17.0310   13.1640 C.2    50  TRP50       0.2264
     40  O         24.2010  -16.9470   12.1850 O.2    50  TRP50      -0.2867
     41  CB        23.0350  -16.8940   14.6850 C.3    50  TRP50       0.0550
     42  CG        22.3040  -17.4760   15.8220 C.ar   50  TRP50       0.0003
     43  CD1       22.6690  -18.5670   16.5400 C.ar   50  TRP50       0.0946
     44  CD2       21.1330  -16.9560   16.4830 C.ar   50  TRP50       0.0152
     45  NE1       21.8290  -18.7640   17.6250 N.ar   50  TRP50      -0.2442
     46  CE2       20.8950  -17.7720   17.6220 C.ar   50  TRP50       0.0810
     47  CE3       20.3310  -15.8550   16.2480 C.ar   50  TRP50       0.0012
     48  CZ2       19.8520  -17.5630   18.4930 C.ar   50  TRP50       0.0191
     49  CZ3       19.2870  -15.6620   17.1440 C.ar   50  TRP50       0.0001
     50  CH2       19.0300  -16.4530   18.2510 C.ar   50  TRP50       0.0015
     51  N         25.7870  -14.1660   12.4090 N.3    52  LYS52      -0.1245
     52  CA        25.1840  -12.8680   11.9060 C.3    52  LYS52       0.1561
     53  C         26.2370  -11.7900   12.0030 C.2    52  LYS52       0.2260
     54  O         26.9770  -11.7640   12.9790 O.2    52  LYS52      -0.2867
     55  CB        23.9320  -12.5670   12.6820 C.3    52  LYS52       0.0271
     56  CG        23.1330  -11.4050   11.9930 C.3    52  LYS52       0.0035
     57  CD        22.1840  -10.8200   13.0500 C.3    52  LYS52       0.0206
     58  CE        21.0440  -11.7360   13.4190 C.3    52  LYS52       0.1093
     59  NZ        20.1610  -11.0400   14.4130 N.3    52  LYS52      -0.1314
     60  N         28.2060  -10.3870   23.3200 N.3    92  TRP92      -0.1227
     61  CA        27.4180  -11.4340   22.6400 C.3    92  TRP92       0.1737
     62  C         27.7950  -12.8130   23.1980 C.2    92  TRP92       0.2595
     63  O         27.0380  -13.7850   22.9640 O.2    92  TRP92      -0.2718
     64  CB        27.5890  -11.4010   21.1080 C.3    92  TRP92       0.0564
     65  CG        28.9980  -11.3570   20.6580 C.ar   92  TRP92       0.0003
     66  CD1       29.6950  -10.2330   20.3110 C.ar   92  TRP92       0.0946
     67  CD2       29.8720  -12.4940   20.4210 C.ar   92  TRP92       0.0152
     68  NE1       31.0090  -10.5840   19.9880 N.ar   92  TRP92      -0.2442
     69  CE2       31.1190  -11.9660   19.9880 C.ar   92  TRP92       0.0810
     70  CE3       29.6980  -13.8840   20.5090 C.ar   92  TRP92       0.0012
     71  CZ2       32.2670  -12.7540   19.7020 C.ar   92  TRP92       0.0191
     72  CZ3       30.8290  -14.6940   20.1770 C.ar   92  TRP92       0.0001
     73  CH2       32.0660  -14.1250   19.8750 C.ar   92  TRP92       0.0015
     74  N         28.9620  -12.8700   23.7810 N.am   93  ARG93      -0.1966
     75  CA        29.4760  -14.1370   24.2850 C.3    93  ARG93       0.1729
     76  C         28.6730  -14.7550   25.4120 C.2    93  ARG93       0.2616
     77  O         28.5230  -15.9830   25.4380 O.2    93  ARG93      -0.2715
     78  CB        30.8780  -14.0280   24.9090 C.3    93  ARG93       0.0348
     79  CG        32.0120  -14.4940   24.1630 C.3    93  ARG93       0.0492
     80  CD        33.0900  -13.8790   23.4600 C.3    93  ARG93       0.2205
     81  NE        33.7390  -15.0600   22.6920 N.pl3  93  ARG93      -0.0865
     82  CZ        34.5450  -14.5200   21.7360 C.cat  93  ARG93       0.5346
     83  NH1       34.6560  -13.1810   21.6800 N.pl3  93  ARG93       0.1354
     84  NH2       35.1190  -15.2990   20.8540 N.pl3  93  ARG93       0.1354
     85  N         28.1940  -13.9350   26.3230 N.am   94  GLU94      -0.1963
     86  CA        27.4970  -14.5480   27.4830 C.3    94  GLU94       0.1733
     87  C         26.0810  -14.0880   27.6180 C.2    94  GLU94       0.2616
     88  O         25.1900  -15.0040   27.6650 O.2    94  GLU94      -0.2715
     89  CB        28.2470  -14.2020   28.7340 C.3    94  GLU94       0.0429
     90  CG        27.9270  -14.4340   30.1780 C.3    94  GLU94       0.1163
     91  CD        28.8200  -13.4680   31.0190 C.2    94  GLU94       0.3649
     92  OE1       29.7450  -12.8080   30.4860 O.co2  94  GLU94      -0.2457
     93  OE2       28.5040  -13.4980   32.2530 O.co2  94  GLU94      -0.2457
     94  N         25.8680  -12.7590   27.6160 N.am   95  ASN95      -0.1958
     95  CA        24.4550  -12.4430   27.9230 C.3    95  ASN95       0.1819
     96  C         23.8430  -11.3000   27.1440 C.2    95  ASN95       0.2621
     97  O         22.6960  -10.9690   27.6020 O.2    95  ASN95      -0.2715
     98  CB        24.4520  -12.2760   29.4450 C.3    95  ASN95       0.1195
     99  CG        25.4130  -11.1620   29.8840 C.2    95  ASN95       0.2630
    100  OD1       26.1550  -10.6010   29.0680 O.2    95  ASN95      -0.2716
    101  ND2       25.2770  -10.8100   31.1440 N.am   95  ASN95      -0.0877
    102  N         24.5050  -10.8070   26.1100 N.am   96  LEU96      -0.1977
    103  CA        23.8840   -9.6460   25.3820 C.3    96  LEU96       0.1596
    104  C         23.8530   -8.3790   26.2700 C.2    96  LEU96       0.2287
    105  O         22.8890   -7.6160   26.2920 O.2    96  LEU96      -0.2864
    106  CB        22.4740  -10.0840   24.9970 C.3    96  LEU96       0.0297
    107  CG        22.2430  -10.2750   23.5030 C.3    96  LEU96       0.0022
    108  CD1       23.3280  -11.1050   22.8910 C.3    96  LEU96       0.0001
    109  CD2       20.8460  -10.8970   23.3990 C.3    96  LEU96       0.0001
    110  N         20.1680  -16.9240   33.0670 N.3   172  ILE172     -0.1245
    111  CA        21.1270  -15.9610   32.5040 C.3   172  ILE172      0.1561
    112  C         21.5090  -14.8840   33.5380 C.2   172  ILE172      0.2260
    113  O         20.6630  -14.5240   34.3550 O.2   172  ILE172     -0.2867
    114  CB        20.4790  -15.3520   31.1910 C.3   172  ILE172      0.0252
    115  CG1       20.0700  -16.5740   30.3640 C.3   172  ILE172      0.0019
    116  CG2       21.3650  -14.2790   30.4900 C.3   172  ILE172      0.0019
    117  CD1       20.4940  -16.8580   28.9450 C.3   172  ILE172      0.0001
    118  N          3.9700   -9.8570   25.2490 N.3   192  ASP192     -0.1225
    119  CA         5.4090   -9.9020   25.1470 C.3   192  ASP192      0.1805
    120  C          5.7470   -9.5170   23.7010 C.2   192  ASP192      0.2598
    121  O          4.8530   -9.4910   22.8360 O.2   192  ASP192     -0.2718
    122  CB         5.7860  -11.3710   25.5120 C.3   192  ASP192      0.1424
    123  CG         7.2310  -11.5730   25.7780 C.2   192  ASP192      0.3668
    124  OD1        7.9190  -10.5120   25.9270 O.co2 192  ASP192     -0.2456
    125  OD2        7.7170  -12.7790   25.8010 O.co2 192  ASP192     -0.2456
    126  N          6.9510   -9.2120   23.4450 N.am  193  ALA193     -0.1966
    127  CA         7.6830   -8.9590   22.2090 C.3   193  ALA193      0.1728
    128  C          7.9060  -10.5020   21.8000 C.2   193  ALA193      0.2616
    129  O          7.6370  -11.3800   22.6330 O.2   193  ALA193     -0.2715
    130  CB         9.0230   -8.2750   22.3300 C.3   193  ALA193      0.0334
    131  N          8.1990  -10.7660   20.6050 N.am  194  CYS194     -0.1954
    132  CA         8.3860  -12.1440   20.1150 C.3   194  CYS194      0.1843
    133  C          9.3200  -11.9460   18.9460 C.2   194  CYS194      0.2625
    134  O          9.8340  -10.8080   18.7010 O.2   194  CYS194     -0.2714
    135  CB         7.0430  -12.8360   19.8430 C.3   194  CYS194      0.0997
    136  SG         7.2070  -14.6500   19.6840 S.3   194  CYS194     -0.0798
    137  N          9.6120  -13.0730   18.2820 N.am  195  GLU195     -0.1963
    138  CA        10.6530  -13.0390   17.2400 C.3   195  GLU195      0.1733
    139  C         10.3080  -12.0540   16.1570 C.2   195  GLU195      0.2613
    140  O          9.1870  -12.1850   15.6170 O.2   195  GLU195     -0.2715
    141  CB        10.7680  -14.4930   16.7250 C.3   195  GLU195      0.0429
    142  CG        11.4790  -14.7580   15.4450 C.3   195  GLU195      0.1163
    143  CD        11.7140  -16.2610   15.1950 C.2   195  GLU195      0.3649
    144  OE1       11.1730  -17.1080   15.9050 O.co2 195  GLU195     -0.2457
    145  OE2       12.5200  -16.4010   14.2490 O.co2 195  GLU195     -0.2457
    146  N         11.2130  -11.1870   15.7260 N.am  196  GLY196     -0.2012
    147  CA        10.8050  -10.1870   14.6740 C.3   196  GLY196      0.1506
    148  C         10.6430   -8.7960   15.3510 C.3   196  GLY196      0.2054
    149  O         10.7470   -7.8460   14.5700 O.3   196  GLY196     -0.2184
    150  N         12.8230   -7.7640   17.9660 N.3   198  SER198     -0.1217
    151  CA        14.1180   -7.2950   18.3880 C.3   198  SER198      0.1889
    152  C         14.4890   -5.9620   17.7210 C.2   198  SER198      0.2288
    153  O         14.2090   -5.7520   16.5590 O.2   198  SER198     -0.2866
    154  CB        15.3060   -8.2970   18.1190 C.3   198  SER198      0.2089
    155  OG        14.9270   -9.4540   18.9550 O.3   198  SER198     -0.2183
    156  N         13.9910   -3.8190   22.6150 N.3   218  VAL218     -0.1231
    157  CA        13.6560   -5.2820   22.6930 C.3   218  VAL218      0.1692
    158  C         14.9710   -6.0490   22.5490 C.2   218  VAL218      0.2593
    159  O         15.6900   -5.9650   21.5280 O.2   218  VAL218     -0.2718
    160  CB        12.6160   -5.6320   21.6080 C.3   218  VAL218      0.0266
    161  CG1       12.3590   -7.2020   21.5300 C.3   218  VAL218      0.0020
    162  CG2       11.3430   -4.8160   21.7790 C.3   218  VAL218      0.0020
    163  N         15.2740   -6.7880   23.6650 N.am  219  SER219     -0.1938
    164  CA        16.5880   -7.4920   23.5560 C.3   219  SER219      0.2055
    165  C         16.5900   -9.0180   23.5210 C.2   219  SER219      0.2643
    166  O         17.0890   -9.5490   22.4670 O.2   219  SER219     -0.2714
    167  CB        17.5810   -6.8640   24.5540 C.3   219  SER219      0.2130
    168  OG        18.7960   -7.5530   24.5040 O.3   219  SER219     -0.2179
    169  N         15.9890   -9.6580   24.5220 N.am  220  TRP220     -0.1959
    170  CA        16.0180  -11.1520   24.5410 C.3   220  TRP220      0.1771
    171  C         14.9200  -11.6480   25.4170 C.2   220  TRP220      0.2620
    172  O         14.2460  -10.9350   26.1570 O.2   220  TRP220     -0.2715
    173  CB        17.4450  -11.6340   24.9300 C.3   220  TRP220      0.0590
    174  CG        17.8350  -11.3010   26.3320 C.ar  220  TRP220      0.0006
    175  CD1       18.5590  -10.1650   26.6830 C.ar  220  TRP220      0.0946
    176  CD2       17.6330  -11.9960   27.5670 C.ar  220  TRP220      0.0152
    177  NE1       18.8040  -10.1060   28.0240 N.ar  220  TRP220     -0.2442
    178  CE2       18.2660  -11.2430   28.5960 C.ar  220  TRP220      0.0810
    179  CE3       17.1530  -13.2710   27.9080 C.ar  220  TRP220      0.0012
    180  CZ2       18.3710  -11.7050   29.9020 C.ar  220  TRP220      0.0191
    181  CZ3       17.1290  -13.6640   29.2160 C.ar  220  TRP220      0.0001
    182  CH2       17.7240  -12.8860   30.2060 C.ar  220  TRP220      0.0015
    183  N         14.6040  -12.9450   25.3170 N.am  221  GLY221     -0.1940
    184  CA        13.5650  -13.5230   26.1800 C.3   221  GLY221      0.2014
    185  C         13.6960  -15.0650   25.9780 C.2   221  GLY221      0.2639
    186  O         14.4510  -15.3770   25.0910 O.2   221  GLY221     -0.2714
    187  N         12.8820  -15.8020   26.6570 N.am  222  GLU222     -0.1963
    188  CA        12.9790  -17.2990   26.4700 C.3   222  GLU222      0.1733
    189  C         11.5550  -17.7140   26.2090 C.2   222  GLU222      0.2617
    190  O         10.6340  -17.5670   27.0400 O.2   222  GLU222     -0.2715
    191  CB        13.7250  -17.8500   27.7000 C.3   222  GLU222      0.0429
    192  CG        15.1660  -17.4200   28.0890 C.3   222  GLU222      0.1163
    193  CD        15.5770  -17.5680   29.5560 C.2   222  GLU222      0.3649
    194  OE1       14.8410  -17.0530   30.4140 O.co2 222  GLU222     -0.2457
    195  OE2       16.6380  -18.0550   29.9820 O.co2 222  GLU222     -0.2457
    196  N         11.3440  -17.9880   24.9300 N.am  223  GLY223     -0.1940
    197  CA         9.9460  -18.2740   24.4310 C.3   223  GLY223      0.2014
    198  C          9.3210  -16.8610   24.2420 C.2   223  GLY223      0.2635
    199  O         10.0160  -15.8220   24.3000 O.2   223  GLY223     -0.2714
    200  N          8.0550  -16.7750   24.2160 N.am  224  CYS224     -0.2021
    201  CA         7.2760  -15.5330   24.0820 C.3   224  CYS224      0.1398
    202  C          6.0250  -15.6940   24.9310 C.3   224  CYS224      0.2045
    203  O          5.3690  -16.7250   24.6220 O.3   224  CYS224     -0.2185
    204  CB         6.8770  -15.2360   22.6390 C.3   224  CYS224      0.0930
    205  SG         8.1410  -15.2210   21.4170 S.3   224  CYS224     -0.0802
    206  N          9.8020  -13.3240   31.4200 N.3   230  TYR230     -0.1227
    207  CA         9.7100  -11.8970   31.1150 C.3   230  TYR230      0.1736
    208  C         10.6120  -11.5650   29.9280 C.2   230  TYR230      0.2596
    209  O         11.6730  -12.1460   29.6670 O.2   230  TYR230     -0.2718
    210  CB        10.2510  -11.0700   32.3460 C.3   230  TYR230      0.0548
    211  CG         9.4560  -11.4980   33.5610 C.ar  230  TYR230     -0.0200
    212  CD1        8.1880  -10.9390   33.6720 C.ar  230  TYR230     -0.0009
    213  CD2        9.8620  -12.5080   34.4500 C.ar  230  TYR230     -0.0009
    214  CE1        7.2600  -11.2710   34.6840 C.ar  230  TYR230      0.0417
    215  CE2        8.9290  -12.8690   35.4440 C.ar  230  TYR230      0.0417
    216  CZ         7.6880  -12.2650   35.5730 C.ar  230  TYR230      0.1957
    217  OH         6.7330  -12.6370   36.5210 O.3   230  TYR230     -0.2866
    218  N         10.2310  -10.4430   29.2170 N.am  231  GLY231     -0.1942
    219  CA        11.1450  -10.0230   28.0940 C.3   231  GLY231      0.2014
    220  C         12.1720   -9.0410   28.7830 C.2   231  GLY231      0.2639
    221  O         11.8400   -8.3860   29.7730 O.2   231  GLY231     -0.2714
    222  N         13.3420   -9.0810   28.2380 N.am  232  PHE232     -0.1959
    223  CA        14.4690   -8.2580   28.6330 C.3   232  PHE232      0.1771
    224  C         14.7270   -7.2250   27.5300 C.2   232  PHE232      0.2619
    225  O         14.6260   -7.5060   26.3210 O.2   232  PHE232     -0.2715
    226  CB        15.7400   -9.1340   28.8670 C.3   232  PHE232      0.0574
    227  CG        15.5470   -9.8220   30.2200 C.ar  232  PHE232     -0.0200
    228  CD1       14.7200  -10.9110   30.3100 C.ar  232  PHE232     -0.0042
    229  CD2       16.2580   -9.3140   31.3240 C.ar  232  PHE232     -0.0042
    230  CE1       14.5430  -11.6160   31.5360 C.ar  232  PHE232     -0.0003
    231  CE2       16.0330   -9.9760   32.5650 C.ar  232  PHE232     -0.0003
    232  CZ        15.2410  -11.1180   32.6460 C.ar  232  PHE232     -0.0000
    233  N         15.1770   -6.0480   28.0740 N.am  233  TYR233     -0.1974
    234  CA        15.3710   -4.8620   27.1960 C.3   233  TYR233      0.1639
    235  C         16.6180   -4.1710   27.5190 C.2   233  TYR233      0.2290
    236  O         16.8950   -4.1040   28.7570 O.2   233  TYR233     -0.2864
    237  CB        14.1480   -3.8740   27.5850 C.3   233  TYR233      0.0560
    238  CG        12.8590   -4.4680   27.1660 C.ar  233  TYR233     -0.0198
    239  CD1       12.0970   -5.2830   28.0960 C.ar  233  TYR233     -0.0009
    240  CD2       12.2950   -4.1530   25.9210 C.ar  233  TYR233     -0.0009
    241  CE1       10.9690   -5.8610   27.6710 C.ar  233  TYR233      0.0417
    242  CE2       11.0500   -4.6660   25.5900 C.ar  233  TYR233      0.0417
    243  CZ        10.4500   -5.5790   26.4120 C.ar  233  TYR233      0.1957
    244  OH         9.2670   -6.1820   26.0400 O.3   233  TYR233     -0.2866
@<TRIPOS>BOND
     1     8     6    1
     2     6     7    1
     3     6     5    1
     4     1     2    1
     5     5     2    1
     6     2     3    1
     7     3     9   am
     8     3     4    2
     9     9    10    1
    10    52    53    1
    11    52    51    1
    12    52    55    1
    13    56    55    1
    14    56    57    1
    15    53    54    2
    16    12    11    2
    17    40    39    2
    18    57    58    1
    19    39    38    1
    20    11    10    1
    21    10    13    1
    22    58    59    1
    23    13    14    1
    24   145   143   ar
    25    38    41    1
    26    38    37    1
    27   149   148    1
    28   147   148    1
    29   147   146    1
    30    41    42    1
    31   143   142    1
    32   143   144   ar
    33    28    27    2
    34   142   141    1
    35   140   139    2
    36    25    26    1
    37   146   139   am
    38    42    44   ar
    39    42    43   ar
    40    27    26    1
    41    18    17    2
    42   139   138    1
    43    47    44   ar
    44    47    49   ar
    45    44    46   ar
    46    43    45   ar
    47   153   152    2
    48    26    29    1
    49   141   138    1
    50    17    16    1
    51    29    30    1
    52    49    50   ar
    53   138   137    1
    54    46    45   ar
    55    46    48   ar
    56   152   151    1
    57    32    30   ar
    58    32    34   ar
    59   150   151    1
    60    30    31   ar
    61    16    15    1
    62    16    19    1
    63   154   151    1
    64   154   155    1
    65    50    48   ar
    66   137   133   am
    67    22    24   ar
    68    22    20   ar
    69   134   133    2
    70    24    23   ar
    71   133   132    1
    72    34    35   ar
    73    19    20    1
    74    20    21   ar
    75    31    33   ar
    76   136   135    1
    77   136   205    1
    78    71    73   ar
    79    71    69   ar
    80   135   132    1
    81    73    72   ar
    82    23    21   ar
    83    68    69   ar
    84    68    66   ar
    85    69    67   ar
    86   132   131    1
    87    72    70   ar
    88    66    65   ar
    89    35    33   ar
    90    35    36    1
    91    67    70   ar
    92    67    65   ar
    93   131   128   am
    94    65    64    1
    95    84    82    1
    96    64    61    1
    97   205   204    1
    98   159   158    2
    99   161   160    1
   100   160   162    1
   101   160   157    1
   102    83    82    1
   103    82    81    2
   104   128   127    1
   105   128   129    2
   106   127   130    1
   107   127   126    1
   108   166   165    2
   109   158   157    1
   110   158   163   am
   111   156   157    1
   112   204   201    1
   113    61    62    1
   114    61    60    1
   115    81    80    1
   116   121   120    2
   117   108   107    1
   118    63    62    2
   119    62    74   am
   120   109   107    1
   121   126   120   am
   122    80    79    1
   123   107   106    1
   124   165   164    1
   125   165   169   am
   126   164   163    1
   127   164   167    1
   128   120   119    1
   129    74    75    1
   130   201   200    1
   131   201   202    1
   132    79    78    1
   133   200   198   am
   134   198   199    2
   135   198   197    1
   136    75    78    1
   137    75    76    1
   138   197   196    1
   139   168   167    1
   140   169   170    1
   141   170   173    1
   142   170   171    1
   143   203   202    1
   144   196   189   am
   145   173   174    1
   146   106   103    1
   147   186   185    2
   148   119   118    1
   149   119   122    1
   150   183   171   am
   151   183   184    1
   152   103   102    1
   153   103   104    1
   154    76    77    2
   155    76    85   am
   156   171   172    2
   157   122   123    1
   158   242   240   ar
   159   242   243   ar
   160   123   125   ar
   161   123   124   ar
   162   240   238   ar
   163   185   184    1
   164   185   187   am
   165   244   243    1
   166   102    96   am
   167   189   188    1
   168   189   190    2
   169   104   105    2
   170   225   224    2
   171    85    86    1
   172   174   175   ar
   173   174   176   ar
   174   243   241   ar
   175   188   187    1
   176   188   191    1
   177   175   177   ar
   178    96    97    2
   179    96    95    1
   180   238   237    1
   181   238   239   ar
   182   234   235    1
   183   234   237    1
   184   234   233    1
   185    86    87    1
   186    86    89    1
   187   235   236    2
   188   224   233   am
   189   224   223    1
   190   176   179   ar
   191   176   178   ar
   192    94    87   am
   193    94    95    1
   194    87    88    2
   195   241   239   ar
   196   191   192    1
   197   179   181   ar
   198    95    98    1
   199   177   178   ar
   200   192   193    1
   201   219   220    1
   202   219   218    1
   203   222   223    1
   204   222   220   am
   205   178   180   ar
   206   223   226    1
   207    89    90    1
   208   220   221    2
   209   226   227    1
   210   117   115    1
   211   100    99    2
   212   181   182   ar
   213   218   208   am
   214    98    99    1
   215   193   195   ar
   216   193   194   ar
   217   209   208    2
   218    99   101   am
   219   180   182   ar
   220   208   207    1
   221    90    91    1
   222   227   228   ar
   223   227   229   ar
   224   228   230   ar
   225   115   114    1
   226    92    91   ar
   227   116   114    1
   228    91    93   ar
   229   207   206    1
   230   207   210    1
   231   114   111    1
   232   229   231   ar
   233   230   232   ar
   234   210   211    1
   235   111   110    1
   236   111   112    1
   237   231   232   ar
   238   112   113    2
   239   211   212   ar
   240   211   213   ar
   241   212   214   ar
   242   213   215   ar
   243   214   216   ar
   244   215   216   ar
   245   216   217    1
