@<TRIPOS>MOLECULE
tmp/1aybA00.pdb
 205 198 0 0 0
SMALL
GASTEIGER

@<TRIPOS>ATOM
      1  N         23.9570    3.5160   15.5700 N.3    14  GLU14      -0.1245
      2  CA        23.0450    2.9520   14.5940 C.3    14  GLU14       0.1567
      3  C         23.2470    1.4390   14.5070 C.2    14  GLU14       0.2260
      4  O         22.3150    0.6480   14.6740 O.2    14  GLU14      -0.2867
      5  CB        23.2820    3.5440   13.2330 C.3    14  GLU14       0.0388
      6  CG        22.2000    4.5350   12.9040 C.3    14  GLU14       0.1160
      7  CD        22.7130    5.9540   12.7890 C.2    14  GLU14       0.3649
      8  OE1       22.9700    6.5680   13.8190 O.co2  14  GLU14      -0.2457
      9  OE2       22.8480    6.4420   11.6660 O.co2  14  GLU14      -0.2457
     10  N         25.2410    8.4770   24.4720 N.3    29  ARG29      -0.1245
     11  CA        26.5510    8.4440   23.8630 C.3    29  ARG29       0.1563
     12  C         27.1140    9.8700   23.8090 C.2    29  ARG29       0.2260
     13  O         26.3330   10.8350   23.9190 O.2    29  ARG29      -0.2867
     14  CB        26.3770    7.8550   22.4650 C.3    29  ARG29       0.0307
     15  CG        25.3540    8.6580   21.7030 C.3    29  ARG29       0.0489
     16  CD        25.1050    8.0570   20.3810 C.3    29  ARG29       0.2205
     17  NE        24.6500    9.0980   19.4990 N.pl3  29  ARG29      -0.0865
     18  CZ        25.4980   10.0050   19.0100 C.cat  29  ARG29       0.5346
     19  NH1       26.8080   10.0380   19.2980 N.pl3  29  ARG29       0.1354
     20  NH2       25.0170   10.8530   18.1240 N.pl3  29  ARG29       0.1354
     21  N         28.3420   13.2180   22.0080 N.3    31  SER31      -0.1202
     22  CA        27.8950   13.8660   20.8040 C.3    31  SER31       0.2020
     23  C         29.0660   14.0800   19.8780 C.2    31  SER31       0.2619
     24  O         30.1740   14.4180   20.3390 O.2    31  SER31      -0.2717
     25  CB        27.2770   15.1850   21.1510 C.3    31  SER31       0.2103
     26  OG        26.3480   15.5910   20.1680 O.3    31  SER31      -0.2182
     27  N         28.8490   13.8210   18.5810 N.am   32  LYS32      -0.1965
     28  CA        29.9240   14.0810   17.6380 C.3    32  LYS32       0.1728
     29  C         29.8430   15.5550   17.2710 C.2    32  LYS32       0.2616
     30  O         30.8730   16.1920   17.0520 O.2    32  LYS32      -0.2715
     31  CB        29.7910   13.2810   16.3530 C.3    32  LYS32       0.0311
     32  CG        29.6150   11.7800   16.5530 C.3    32  LYS32       0.0038
     33  CD        30.7620   11.1680   17.3550 C.3    32  LYS32       0.0206
     34  CE        32.0590   11.1200   16.5520 C.3    32  LYS32       0.1093
     35  NZ        33.2020   10.6260   17.3780 N.3    32  LYS32      -0.1314
     36  N         28.6230   16.1160   17.1950 N.am   33  SER33      -0.1950
     37  CA        28.4550   17.5280   16.8920 C.3    33  SER33       0.1924
     38  C         28.9900   18.3290   18.0820 C.2    33  SER33       0.2314
     39  O         30.0390   18.9760   17.9780 O.2    33  SER33      -0.2863
     40  CB        26.9660   17.9070   16.6770 C.3    33  SER33       0.2116
     41  OG        26.1990   17.0520   15.8290 O.3    33  SER33      -0.2180
     42  N         24.0120   12.6440   23.2600 N.3    39  THR39      -0.1218
     43  CA        22.8260   12.5460   22.4420 C.3    39  THR39       0.1862
     44  C         22.1570   11.2550   22.8390 C.2    39  THR39       0.2287
     45  O         22.8990   10.3320   23.1620 O.2    39  THR39      -0.2866
     46  CB        23.2770   12.5370   20.9840 C.3    39  THR39       0.1770
     47  OG1       23.9060   13.7970   20.7090 O.3    39  THR39      -0.2211
     48  CG2       22.1310   12.3140   20.0510 C.3    39  THR39       0.0375
     49  N         13.1530    3.7230   17.1980 N.3    44  ARG44      -0.1245
     50  CA        11.7440    3.9880   17.1750 C.3    44  ARG44       0.1563
     51  C         11.3160    3.6030   15.8140 C.2    44  ARG44       0.2260
     52  O         11.8060    4.0630   14.7890 O.2    44  ARG44      -0.2867
     53  CB        11.4550    5.4490   17.3520 C.3    44  ARG44       0.0307
     54  CG        10.0530    5.9110   17.0410 C.3    44  ARG44       0.0489
     55  CD         9.8570    7.2230   17.7510 C.3    44  ARG44       0.2205
     56  NE        10.6570    8.2930   17.1830 N.pl3  44  ARG44      -0.0865
     57  CZ        10.1480    9.0920   16.2320 C.cat  44  ARG44       0.5346
     58  NH1        8.8940    8.9160   15.7730 N.pl3  44  ARG44       0.1354
     59  NH2       10.8730   10.1260   15.7760 N.pl3  44  ARG44       0.1354
     60  N         13.4830    2.5160   12.7720 N.3    47  ALA47      -0.1231
     61  CA        14.7020    3.2850   12.6070 C.3    47  ALA47       0.1694
     62  C         15.3210    3.8380   13.8750 C.2    47  ALA47       0.2592
     63  O         14.7440    3.6820   14.9530 O.2    47  ALA47      -0.2718
     64  CB        14.4320    4.4560   11.6870 C.3    47  ALA47       0.0304
     65  N         16.5320    4.4260   13.7410 N.am   48  VAL48      -0.1966
     66  CA        17.2280    5.1220   14.8400 C.3    48  VAL48       0.1727
     67  C         16.9770    6.6380   14.7970 C.2    48  VAL48       0.2617
     68  O         17.0870    7.2550   13.7190 O.2    48  VAL48      -0.2715
     69  CB        18.7470    4.8620   14.7620 C.3    48  VAL48       0.0290
     70  CG1       19.4210    5.4650   15.9580 C.3    48  VAL48       0.0023
     71  CG2       19.0620    3.3960   14.8440 C.3    48  VAL48       0.0023
     72  N         16.7120    7.2610   15.9350 N.am   49  THR49      -0.1937
     73  CA        16.4040    8.6840   16.0820 C.3    49  THR49       0.2028
     74  C         17.4150    9.2030   17.1030 C.2    49  THR49       0.2642
     75  O         17.6860    8.5070   18.1000 O.2    49  THR49      -0.2714
     76  CB        15.0150    8.8690   16.6510 C.3    49  THR49       0.1808
     77  OG1       14.0680    8.1200   15.8990 O.3    49  THR49      -0.2208
     78  CG2       14.6830   10.2950   16.6450 C.3    49  THR49       0.0379
     79  N         18.0040   10.3800   16.9340 N.am   50  HIS50      -0.1959
     80  CA        18.9730   10.8790   17.9030 C.3    50  HIS50       0.1787
     81  C         18.3700   12.0970   18.5030 C.2    50  HIS50       0.2620
     82  O         17.6590   12.8010   17.7920 O.2    50  HIS50      -0.2715
     83  CB        20.2500   11.3010   17.2780 C.3    50  HIS50       0.0785
     84  CG        20.8170   10.1190   16.5660 C.ar   50  HIS50       0.0821
     85  ND1       21.0870    8.9630   17.1400 N.ar   50  HIS50      -0.2267
     86  CD2       21.0850   10.0550   15.2340 C.ar   50  HIS50       0.1154
     87  CE1       21.5210    8.1770   16.1940 C.ar   50  HIS50       0.1986
     88  NE2       21.5130    8.8430   15.0580 N.ar   50  HIS50      -0.2212
     89  N         18.6090   12.3420   19.7720 N.am   51  ILE51      -0.1963
     90  CA        18.0160   13.4750   20.4130 C.3    51  ILE51       0.1727
     91  C         19.1770   14.1300   21.0960 C.2    51  ILE51       0.2616
     92  O         19.9580   13.4570   21.7540 O.2    51  ILE51      -0.2715
     93  CB        16.9960   13.0230   21.4260 C.3    51  ILE51       0.0290
     94  CG1       15.8670   12.2230   20.7770 C.3    51  ILE51       0.0022
     95  CG2       16.4240   14.2720   22.0720 C.3    51  ILE51       0.0023
     96  CD1       14.8920   11.5250   21.7360 C.3    51  ILE51       0.0001
     97  N         19.3490   15.4200   20.9560 N.am   52  LYS52      -0.1977
     98  CA        20.4480   16.1150   21.5700 C.3    52  LYS52       0.1596
     99  C         20.1220   16.3970   23.0160 C.2    52  LYS52       0.2287
    100  O         19.0430   16.9290   23.2620 O.2    52  LYS52      -0.2864
    101  CB        20.6720   17.4330   20.8320 C.3    52  LYS52       0.0298
    102  CG        21.2710   17.4160   19.4320 C.3    52  LYS52       0.0038
    103  CD        22.6750   16.8200   19.5790 C.3    52  LYS52       0.0206
    104  CE        23.7910   17.8480   19.4600 C.3    52  LYS52       0.1093
    105  NZ        23.9840   18.2820   18.0810 N.3    52  LYS52      -0.1314
    106  N         16.3850   18.4580   27.5010 N.3    62  LEU62      -0.1231
    107  CA        16.4570   18.0930   26.1060 C.3    62  LEU62       0.1693
    108  C         16.1150   19.3470   25.2710 C.2    62  LEU62       0.2592
    109  O         15.2380   19.3380   24.4030 O.2    62  LEU62      -0.2718
    110  CB        15.4660   16.9690   25.8930 C.3    62  LEU62       0.0284
    111  CG        15.6940   15.6570   26.5770 C.3    62  LEU62       0.0019
    112  CD1       14.3740   14.9680   26.6820 C.3    62  LEU62       0.0001
    113  CD2       16.6430   14.7830   25.7950 C.3    62  LEU62       0.0001
    114  N         16.8160   20.4600   25.5120 N.am   63  TYR63      -0.1962
    115  CA        16.5630   21.7310   24.8480 C.3    63  TYR63       0.1771
    116  C         15.1200   22.1540   24.9460 C.2    63  TYR63       0.2620
    117  O         14.3930   22.3780   23.9860 O.2    63  TYR63      -0.2715
    118  CB        16.9470   21.6610   23.4020 C.3    63  TYR63       0.0574
    119  CG        18.4420   21.5650   23.2860 C.ar   63  TYR63      -0.0198
    120  CD1       19.2110   22.7240   23.2600 C.ar   63  TYR63      -0.0009
    121  CD2       19.0360   20.3180   23.2130 C.ar   63  TYR63      -0.0009
    122  CE1       20.5950   22.6510   23.1620 C.ar   63  TYR63       0.0417
    123  CE2       20.4200   20.2490   23.1110 C.ar   63  TYR63       0.0417
    124  CZ        21.1950   21.4050   23.0900 C.ar   63  TYR63       0.1957
    125  OH        22.5790   21.2930   23.0270 O.3    63  TYR63      -0.2866
    126  N         14.7790   22.2790   26.2110 N.am   64  GLY64      -0.1940
    127  CA        13.4590   22.6430   26.6530 C.3    64  GLY64       0.2014
    128  C         13.0670   21.5130   27.5980 C.2    64  GLY64       0.2639
    129  O         13.8730   20.5890   27.7850 O.2    64  GLY64      -0.2714
    130  N         11.8980   21.5160   28.2330 N.am   65  GLY65      -0.1954
    131  CA        11.5350   20.3990   29.0930 C.3    65  GLY65       0.1869
    132  C         11.8440   20.6230   30.5660 C.2    65  GLY65       0.2309
    133  O         12.1820   21.7550   30.9770 O.2    65  GLY65      -0.2863
    134  N         12.4610   10.1780   32.1620 N.3    78  TYR78      -0.1241
    135  CA        11.7470    9.9000   30.9340 C.3    78  TYR78       0.1605
    136  C         11.4030    8.4550   30.6730 C.2    78  TYR78       0.2264
    137  O         10.5810    8.1290   29.8170 O.2    78  TYR78      -0.2867
    138  CB        12.5640   10.4750   29.8040 C.3    78  TYR78       0.0534
    139  CG        12.4360   12.0060   29.6990 C.ar   78  TYR78      -0.0201
    140  CD1       11.2220   12.5980   29.2740 C.ar   78  TYR78      -0.0009
    141  CD2       13.5280   12.8190   30.0420 C.ar   78  TYR78      -0.0009
    142  CE1       11.1070   13.9910   29.2010 C.ar   78  TYR78       0.0417
    143  CE2       13.4030   14.2040   29.9670 C.ar   78  TYR78       0.0417
    144  CZ        12.2020   14.7810   29.5510 C.ar   78  TYR78       0.1957
    145  OH        12.1020   16.1640   29.4850 O.3    78  TYR78      -0.2866
    146  N          5.7540   12.0480   27.7310 N.3    84  GLN84      -0.1231
    147  CA         6.1900   13.4360   27.6110 C.3    84  GLN84       0.1698
    148  C          7.0420   13.8150   26.3830 C.2    84  GLN84       0.2592
    149  O          7.3950   14.9870   26.1960 O.2    84  GLN84      -0.2718
    150  CB         6.9230   13.7910   28.8970 C.3    84  GLN84       0.0381
    151  CG         5.8940   13.9650   30.0010 C.3    84  GLN84       0.0905
    152  CD         6.3810   14.6220   31.2930 C.2    84  GLN84       0.2608
    153  OE1        7.1120   15.6230   31.3290 O.2    84  GLN84      -0.2717
    154  NE2        5.9700   14.1020   32.4440 N.am   84  GLN84      -0.0878
    155  N          7.3920   12.8570   25.5060 N.am   85  LEU85      -0.1966
    156  CA         8.2620   13.0870   24.3490 C.3    85  LEU85       0.1728
    157  C          7.4780   12.9390   23.0610 C.2    85  LEU85       0.2616
    158  O          7.1280   11.8080   22.7090 O.2    85  LEU85      -0.2715
    159  CB         9.3890   12.0700   24.3130 C.3    85  LEU85       0.0311
    160  CG        10.2650   11.9290   25.5270 C.3    85  LEU85       0.0022
    161  CD1       11.1800   10.7340   25.3860 C.3    85  LEU85       0.0001
    162  CD2       11.0520   13.2100   25.6920 C.3    85  LEU85       0.0001
    163  N          7.1210   14.0060   22.3670 N.am   86  LYS86      -0.1963
    164  CA         6.4630   13.8750   21.0800 C.3    86  LYS86       0.1728
    165  C          7.4330   14.4710   20.0720 C.2    86  LYS86       0.2616
    166  O          8.0120   15.5450   20.3020 O.2    86  LYS86      -0.2715
    167  CB         5.1600   14.6770   20.9660 C.3    86  LYS86       0.0311
    168  CG         3.9630   14.2500   21.8040 C.3    86  LYS86       0.0038
    169  CD         2.7090   15.0650   21.4180 C.3    86  LYS86       0.0206
    170  CE         1.4050   14.5550   22.0670 C.3    86  LYS86       0.1093
    171  NZ         1.4180   14.6950   23.5160 N.3    86  LYS86      -0.1314
    172  N          7.6980   13.8030   18.9510 N.am   87  GLU87      -0.1963
    173  CA         8.5130   14.4180   17.9020 C.3    87  GLU87       0.1733
    174  C          7.5800   15.4860   17.3450 C.2    87  GLU87       0.2616
    175  O          6.3470   15.3930   17.4570 O.2    87  GLU87      -0.2715
    176  CB         8.8700   13.4340   16.7620 C.3    87  GLU87       0.0429
    177  CG         9.6480   14.0930   15.6690 C.3    87  GLU87       0.1163
    178  CD         9.9510   13.1830   14.5070 C.2    87  GLU87       0.3649
    179  OE1        9.3010   12.1340   14.2770 O.co2  87  GLU87      -0.2457
    180  OE2       10.8990   13.4170   13.7640 O.co2  87  GLU87      -0.2457
    181  N          8.1400   16.5420   16.7900 N.am   88  LYS88      -0.1963
    182  CA         7.3220   17.6200   16.2600 C.3    88  LYS88       0.1728
    183  C          6.2980   17.1790   15.2380 C.2    88  LYS88       0.2616
    184  O          6.6180   16.8580   14.0980 O.2    88  LYS88      -0.2715
    185  CB         8.2450   18.6770   15.6820 C.3    88  LYS88       0.0311
    186  CG         9.4330   18.2290   14.8350 C.3    88  LYS88       0.0038
    187  CD        10.5210   19.2930   14.9510 C.3    88  LYS88       0.0206
    188  CE        10.0110   20.6860   14.5700 C.3    88  LYS88       0.1093
    189  NZ        11.0800   21.6590   14.6790 N.3    88  LYS88      -0.1314
    190  N          5.0770   17.0390   15.7820 N.am   89  ASN89      -0.1972
    191  CA         3.8750   16.5750   15.0720 C.3    89  ASN89       0.1688
    192  C          4.0530   15.2160   14.3630 C.2    89  ASN89       0.2292
    193  O          3.4890   14.8760   13.3200 O.2    89  ASN89      -0.2864
    194  CB         3.4490   17.6460   14.0520 C.3    89  ASN89       0.1181
    195  CG         2.8470   18.8510   14.6620 C.2    89  ASN89       0.2629
    196  OD1        1.7810   18.7130   15.2750 O.2    89  ASN89      -0.2716
    197  ND2        3.4470   19.9760   14.5550 N.am   89  ASN89      -0.0877
    198  N          7.9300    9.2830   21.5340 N.3    93  ILE93      -0.1245
    199  CA         9.2100    8.5840   21.5970 C.3    93  ILE93       0.1561
    200  C          9.2800    7.9740   22.9930 C.2    93  ILE93       0.2260
    201  O          9.0030    8.5780   24.0370 O.2    93  ILE93      -0.2867
    202  CB        10.3910    9.5500   21.3340 C.3    93  ILE93       0.0252
    203  CG1       10.2990   10.0800   19.9110 C.3    93  ILE93       0.0019
    204  CG2       11.6990    8.8250   21.5460 C.3    93  ILE93       0.0019
    205  CD1       11.4330   10.9280   19.3280 C.3    93  ILE93       0.0001
@<TRIPOS>BOND
     1     9     7   ar
     2    64    61    1
     3    61    60    1
     4    61    62    1
     5     7     6    1
     6     7     8   ar
     7     6     5    1
     8     5     2    1
     9   193   192    2
    10    68    67    2
    11    65    62   am
    12    65    66    1
    13   180   178   ar
    14    62    63    2
    15   194   195    1
    16   194   191    1
    17   184   183    2
    18   179   178   ar
    19   192   191    1
    20   178   177    1
    21     3     2    1
    22     3     4    2
    23   197   195   am
    24   188   189    1
    25   188   187    1
    26     2     1    1
    27   195   196    2
    28    69    66    1
    29    69    71    1
    30    69    70    1
    31    52    51    2
    32    67    66    1
    33    67    72   am
    34   186   187    1
    35   186   185    1
    36    88    86   ar
    37    88    87   ar
    38   191   190    1
    39    86    84   ar
    40   183   190   am
    41   183   182    1
    42   177   176    1
    43   185   182    1
    44    58    57    1
    45    59    57    1
    46    51    50    1
    47    41    40    1
    48    77    76    1
    49    72    73    1
    50    73    76    1
    51    73    74    1
    52    87    85   ar
    53    57    56    2
    54   182   181    1
    55    31    32    1
    56    31    28    1
    57    34    33    1
    58    34    35    1
    59    32    33    1
    60    84    85   ar
    61    84    83    1
    62    78    76    1
    63    40    37    1
    64   176   173    1
    65   181   174   am
    66    37    36    1
    67    37    38    1
    68    79    74   am
    69    79    80    1
    70    54    53    1
    71    54    55    1
    72    30    29    2
    73    74    75    2
    74    50    49    1
    75    50    53    1
    76    56    55    1
    77    36    29   am
    78    29    28    1
    79    83    80    1
    80   174   175    2
    81   174   173    1
    82    28    27    1
    83    82    81    2
    84   173   172    1
    85    80    81    1
    86    39    38    2
    87   105   104    1
    88    20    18    1
    89    81    89   am
    90    27    23   am
    91   172   165   am
    92    18    19    1
    93    18    17    2
    94   205   203    1
    95   102   103    1
    96   102   101    1
    97   104   103    1
    98    17    16    1
    99    89    90    1
   100    23    24    2
   101    23    22    1
   102   203   202    1
   103    48    46    1
   104   165   166    2
   105   165   164    1
   106    26    25    1
   107    16    15    1
   108    90    91    1
   109    90    93    1
   110    47    46    1
   111    94    93    1
   112    94    96    1
   113    22    25    1
   114    22    21    1
   115   101    98    1
   116    97    91   am
   117    97    98    1
   118   167   164    1
   119   167   168    1
   120    46    43    1
   121   164   163    1
   122    91    92    2
   123   202   204    1
   124   202   199    1
   125   169   168    1
   126   169   170    1
   127    93    95    1
   128   198   199    1
   129    98    99    1
   130   199   200    1
   131    15    14    1
   132   170   171    1
   133   163   157   am
   134    43    44    1
   135    43    42    1
   136    14    11    1
   137   158   157    2
   138    44    45    2
   139   200   201    2
   140    99   100    2
   141   125   124    1
   142   157   156    1
   143   124   123   ar
   144   124   122   ar
   145   123   121   ar
   146   122   120   ar
   147   121   119   ar
   148   120   119   ar
   149   119   118    1
   150   118   115    1
   151    12    11    1
   152    12    13    2
   153    11    10    1
   154   117   116    2
   155   159   156    1
   156   159   160    1
   157   156   155    1
   158   109   108    2
   159   115   116    1
   160   115   114    1
   161   116   126   am
   162   108   114   am
   163   108   107    1
   164   161   160    1
   165   155   148   am
   166   160   162    1
   167   113   111    1
   168   110   107    1
   169   110   111    1
   170   107   106    1
   171   149   148    2
   172   126   127    1
   173   148   147    1
   174   111   112    1
   175   127   128    1
   176   128   129    2
   177   128   130   am
   178   147   146    1
   179   147   150    1
   180   130   131    1
   181   150   151    1
   182   131   132    1
   183   142   140   ar
   184   142   144   ar
   185   140   139   ar
   186   145   144    1
   187   144   143   ar
   188   139   138    1
   189   139   141   ar
   190   138   135    1
   191   137   136    2
   192   143   141   ar
   193   151   152    1
   194   132   133    2
   195   136   135    1
   196   135   134    1
   197   152   153    2
   198   152   154   am
