@<TRIPOS>MOLECULE
tmp/1aycA00.pdb
 156 149 0 0 0
SMALL
GASTEIGER

@<TRIPOS>ATOM
      1  N         26.6210    8.3560   14.0360 N.3    10  GLY10      -0.1225
      2  CA        25.2000    8.1940   13.7180 C.3    10  GLY10       0.1811
      3  C         24.9980    7.0020   12.7860 C.2    10  GLY10       0.2280
      4  O         24.0550    6.2370   12.9140 O.2    10  GLY10      -0.2866
      5  N         22.7330    3.7960   13.8280 N.3    14  GLU14      -0.1245
      6  CA        21.7420    3.2000   12.9310 C.3    14  GLU14       0.1567
      7  C         22.0430    1.7170   12.6400 C.2    14  GLU14       0.2260
      8  O         21.1400    0.8830   12.5580 O.2    14  GLU14      -0.2867
      9  CB        21.7340    4.0300   11.6600 C.3    14  GLU14       0.0388
     10  CG        21.1870    5.4260   11.9410 C.3    14  GLU14       0.1160
     11  CD        21.2750    6.4100   10.7810 C.2    14  GLU14       0.3649
     12  OE1       22.3840    6.6540   10.3120 O.co2  14  GLU14      -0.2457
     13  OE2       20.2440    6.9540   10.3650 O.co2  14  GLU14      -0.2457
     14  N         24.7730    9.0540   22.1090 N.3    29  ARG29      -0.1245
     15  CA        26.1540    9.0150   21.6130 C.3    29  ARG29       0.1563
     16  C         26.5970   10.5000   21.5210 C.2    29  ARG29       0.2260
     17  O         25.8040   11.4050   21.8560 O.2    29  ARG29      -0.2867
     18  CB        26.1930    8.2790   20.2200 C.3    29  ARG29       0.0307
     19  CG        24.9880    8.5630   19.3250 C.3    29  ARG29       0.0489
     20  CD        25.2760    8.5690   17.8600 C.3    29  ARG29       0.2205
     21  NE        24.2050    9.3170   17.2090 N.pl3  29  ARG29      -0.0865
     22  CZ        24.4580   10.4240   16.4970 C.cat  29  ARG29       0.5346
     23  NH1       25.6960   10.8980   16.3620 N.pl3  29  ARG29       0.1354
     24  NH2       23.4790   11.0470   15.8580 N.pl3  29  ARG29       0.1354
     25  N         27.6560   14.1870   19.6320 N.3    31  SER31      -0.1202
     26  CA        27.2510   14.9000   18.4410 C.3    31  SER31       0.2020
     27  C         28.4310   15.0570   17.5000 C.2    31  SER31       0.2619
     28  O         29.5960   15.1720   17.9190 O.2    31  SER31      -0.2717
     29  CB        26.7310   16.2580   18.8320 C.3    31  SER31       0.2103
     30  OG        25.5400   16.5840   18.1460 O.3    31  SER31      -0.2182
     31  N         28.0810   15.0620   16.2060 N.am   32  LYS32      -0.1965
     32  CA        29.0620   15.2400   15.1400 C.3    32  LYS32       0.1728
     33  C         29.1500   16.7130   14.7760 C.2    32  LYS32       0.2616
     34  O         30.2380   17.2880   14.6530 O.2    32  LYS32      -0.2715
     35  CB        28.6750   14.4780   13.8670 C.3    32  LYS32       0.0311
     36  CG        28.5100   12.9640   13.9450 C.3    32  LYS32       0.0038
     37  CD        29.8590   12.4350   14.2740 C.3    32  LYS32       0.0206
     38  CE        29.5050   10.9490   14.5320 C.3    32  LYS32       0.1093
     39  NZ        30.4070   10.4620   15.5870 N.3    32  LYS32      -0.1314
     40  N         27.9530   17.2940   14.6360 N.am   33  SER33      -0.1950
     41  CA        27.8000   18.6920   14.2960 C.3    33  SER33       0.1924
     42  C         28.1560   19.5960   15.4620 C.2    33  SER33       0.2314
     43  O         28.5840   20.7340   15.2760 O.2    33  SER33      -0.2863
     44  CB        26.3580   18.9320   13.8640 C.3    33  SER33       0.2116
     45  OG        25.4860   18.1580   14.6720 O.3    33  SER33      -0.2180
     46  N         23.6150   13.0590   21.4390 N.3    39  THR39      -0.1218
     47  CA        22.5010   12.7890   20.5620 C.3    39  THR39       0.1862
     48  C         21.9080   11.4370   20.9260 C.2    39  THR39       0.2287
     49  O         22.6140   10.4830   21.2500 O.2    39  THR39      -0.2866
     50  CB        23.0310   12.8320   19.1080 C.3    39  THR39       0.1770
     51  OG1       23.6220   14.1220   18.9300 O.3    39  THR39      -0.2211
     52  CG2       21.9550   12.6480   18.0750 C.3    39  THR39       0.0375
     53  N         15.5880    4.8810   12.1850 N.3    48  VAL48      -0.1231
     54  CA        16.2520    5.5680   13.2700 C.3    48  VAL48       0.1692
     55  C         16.1400    7.0740   13.1730 C.2    48  VAL48       0.2593
     56  O         16.3000    7.6580   12.1140 O.2    48  VAL48      -0.2718
     57  CB        17.7130    5.1400   13.2890 C.3    48  VAL48       0.0266
     58  CG1       18.4420    5.8130   14.4470 C.3    48  VAL48       0.0020
     59  CG2       17.7780    3.6170   13.4580 C.3    48  VAL48       0.0020
     60  N         15.8670    7.7110   14.2960 N.am   49  THR49      -0.1939
     61  CA        15.7190    9.1490   14.3950 C.3    49  THR49       0.2028
     62  C         16.8380    9.5870   15.3380 C.2    49  THR49       0.2642
     63  O         17.3020    8.8100   16.1850 O.2    49  THR49      -0.2714
     64  CB        14.3320    9.4820   14.9800 C.3    49  THR49       0.1808
     65  OG1       13.3840    8.7250   14.2160 O.3    49  THR49      -0.2208
     66  CG2       14.0360   10.9820   14.9800 C.3    49  THR49       0.0379
     67  N         17.2990   10.8190   15.2420 N.am   50  HIS50      -0.1959
     68  CA        18.3840   11.2870   16.0690 C.3    50  HIS50       0.1787
     69  C         17.8820   12.5620   16.7100 C.2    50  HIS50       0.2620
     70  O         17.3360   13.3940   15.9900 O.2    50  HIS50      -0.2715
     71  CB        19.5760   11.5510   15.1960 C.3    50  HIS50       0.0785
     72  CG        20.1850   10.3110   14.5470 C.ar   50  HIS50       0.0821
     73  ND1       20.9030    9.3660   15.1350 N.ar   50  HIS50      -0.2267
     74  CD2       20.1270    9.9990   13.2160 C.ar   50  HIS50       0.1154
     75  CE1       21.2930    8.4960   14.2400 C.ar   50  HIS50       0.1986
     76  NE2       20.8170    8.8920   13.0960 N.ar   50  HIS50      -0.2212
     77  N         17.9880   12.7210   18.0340 N.am   51  ILE51      -0.1963
     78  CA        17.5450   13.8900   18.7960 C.3    51  ILE51       0.1727
     79  C         18.7370   14.5320   19.5350 C.2    51  ILE51       0.2616
     80  O         19.4400   13.9010   20.3320 O.2    51  ILE51      -0.2715
     81  CB        16.4690   13.4540   19.8110 C.3    51  ILE51       0.0290
     82  CG1       15.3180   12.7760   19.0940 C.3    51  ILE51       0.0022
     83  CG2       15.9790   14.6590   20.5950 C.3    51  ILE51       0.0023
     84  CD1       14.5190   11.9460   20.1090 C.3    51  ILE51       0.0001
     85  N         19.0060   15.8040   19.2750 N.am   52  LYS52      -0.1977
     86  CA        20.0950   16.5430   19.8980 C.3    52  LYS52       0.1596
     87  C         19.7310   16.8500   21.3500 C.2    52  LYS52       0.2287
     88  O         18.5820   17.2110   21.6490 O.2    52  LYS52      -0.2864
     89  CB        20.3140   17.8470   19.1310 C.3    52  LYS52       0.0298
     90  CG        20.6430   17.7190   17.6510 C.3    52  LYS52       0.0038
     91  CD        22.0960   17.2780   17.4710 C.3    52  LYS52       0.0206
     92  CE        23.0890   18.4470   17.3780 C.3    52  LYS52       0.1093
     93  NZ        23.0360   19.1560   16.1060 N.3    52  LYS52      -0.1314
     94  N         16.0040   18.7680   25.8390 N.3    62  LEU62      -0.1231
     95  CA        15.8720   18.4990   24.4250 C.3    62  LEU62       0.1693
     96  C         15.5040   19.7500   23.6260 C.2    62  LEU62       0.2592
     97  O         14.5930   19.7190   22.7970 O.2    62  LEU62      -0.2718
     98  CB        14.8300   17.3880   24.3070 C.3    62  LEU62       0.0284
     99  CG        15.1670   16.0760   25.0290 C.3    62  LEU62       0.0019
    100  CD1       14.2270   15.0090   24.5580 C.3    62  LEU62       0.0001
    101  CD2       16.5660   15.5940   24.6900 C.3    62  LEU62       0.0001
    102  N         16.2740   20.8400   23.8370 N.am   63  TYR63      -0.1976
    103  CA        16.0310   22.1910   23.2820 C.3    63  TYR63       0.1639
    104  C         14.5570   22.6040   23.4130 C.2    63  TYR63       0.2290
    105  O         13.8930   23.0470   22.4720 O.2    63  TYR63      -0.2864
    106  CB        16.4570   22.2690   21.7970 C.3    63  TYR63       0.0560
    107  CG        17.9530   22.0520   21.6080 C.ar   63  TYR63      -0.0198
    108  CD1       18.4480   20.7640   21.4190 C.ar   63  TYR63      -0.0009
    109  CD2       18.8470   23.1290   21.6050 C.ar   63  TYR63      -0.0009
    110  CE1       19.8150   20.5510   21.2350 C.ar   63  TYR63       0.0417
    111  CE2       20.2250   22.9080   21.4180 C.ar   63  TYR63       0.0417
    112  CZ        20.7090   21.6150   21.2300 C.ar   63  TYR63       0.1957
    113  OH        22.0810   21.3740   21.0580 O.3    63  TYR63      -0.2866
    114  N          7.9310   12.9970   24.4820 N.3    85  LEU85      -0.1231
    115  CA         8.8480   13.5480   23.4920 C.3    85  LEU85       0.1693
    116  C          8.0860   13.5400   22.1710 C.2    85  LEU85       0.2592
    117  O          7.7760   12.4880   21.6260 O.2    85  LEU85      -0.2718
    118  CB        10.1370   12.6920   23.5170 C.3    85  LEU85       0.0284
    119  CG        11.2470   12.8330   22.4690 C.3    85  LEU85       0.0019
    120  CD1       11.6340   14.2750   22.2130 C.3    85  LEU85       0.0001
    121  CD2       12.4300   12.0420   22.9760 C.3    85  LEU85       0.0001
    122  N          7.6900   14.7310   21.7080 N.am   86  LYS86      -0.1966
    123  CA         6.8450   14.9400   20.5290 C.3    86  LYS86       0.1728
    124  C          7.6340   15.7630   19.5330 C.2    86  LYS86       0.2616
    125  O          8.2510   16.7710   19.8990 O.2    86  LYS86      -0.2715
    126  CB         5.5850   15.7000   20.8990 C.3    86  LYS86       0.0311
    127  CG         4.7300   14.9590   21.9080 C.3    86  LYS86       0.0038
    128  CD         3.6500   15.8550   22.4840 C.3    86  LYS86       0.0206
    129  CE         2.9410   15.1410   23.6370 C.3    86  LYS86       0.1093
    130  NZ         2.2810   16.0700   24.5540 N.3    86  LYS86      -0.1314
    131  N          7.6310   15.4070   18.2610 N.am   87  GLU87      -0.1963
    132  CA         8.4730   16.0850   17.3020 C.3    87  GLU87       0.1733
    133  C          7.7990   17.2070   16.5410 C.2    87  GLU87       0.2616
    134  O          7.3730   16.9930   15.4130 O.2    87  GLU87      -0.2715
    135  CB         9.0330   15.0520   16.3220 C.3    87  GLU87       0.0429
    136  CG         8.0470   14.1310   15.5940 C.3    87  GLU87       0.1163
    137  CD         8.6520   13.3240   14.4570 C.2    87  GLU87       0.3649
    138  OE1        9.8760   13.1880   14.3880 O.co2  87  GLU87      -0.2457
    139  OE2        7.8840   12.8230   13.6360 O.co2  87  GLU87      -0.2457
    140  N          7.6580   18.4100   17.1090 N.am   88  LYS88      -0.1977
    141  CA         7.0480   19.5820   16.4660 C.3    88  LYS88       0.1596
    142  C          5.6500   19.3200   15.9010 C.2    88  LYS88       0.2287
    143  O          4.6340   19.7740   16.4300 O.2    88  LYS88      -0.2864
    144  CB         7.9760   20.0880   15.3520 C.3    88  LYS88       0.0298
    145  CG         9.2660   20.6990   15.7370 C.3    88  LYS88       0.0038
    146  CD         9.2040   21.8530   16.7020 C.3    88  LYS88       0.0206
    147  CE        10.6280   22.2020   17.2130 C.3    88  LYS88       0.1093
    148  NZ        11.5040   20.9340   17.3460 N.3    88  LYS88      -0.1314
    149  N          7.8740   10.1150   20.0920 N.3    93  ILE93      -0.1245
    150  CA         8.9570    9.1790   19.8530 C.3    93  ILE93       0.1561
    151  C          9.2370    8.5860   21.2310 C.2    93  ILE93       0.2260
    152  O          9.6290    9.2620   22.1910 O.2    93  ILE93      -0.2867
    153  CB        10.2140    9.8730   19.3280 C.3    93  ILE93       0.0252
    154  CG1        9.9050   11.0950   18.4840 C.3    93  ILE93       0.0019
    155  CG2       10.9300    8.8750   18.4290 C.3    93  ILE93       0.0019
    156  CD1       11.1360   11.7410   17.8250 C.3    93  ILE93       0.0001
@<TRIPOS>BOND
     1    12    11   ar
     2    13    11   ar
     3    11    10    1
     4     9    10    1
     5     9     6    1
     6    56    55    2
     7    53    54    1
     8     8     7    2
     9     7     6    1
    10     3     4    2
    11     3     2    1
    12     6     5    1
    13    76    74   ar
    14    76    75   ar
    15    55    54    1
    16    55    60   am
    17    74    72   ar
    18    54    57    1
    19    57    59    1
    20    57    58    1
    21   139   137   ar
    22     2     1    1
    23    44    41    1
    24    44    45    1
    25    35    36    1
    26    35    32    1
    27    36    37    1
    28    65    64    1
    29    75    73   ar
    30    37    38    1
    31    41    40    1
    32    41    42    1
    33    60    61    1
    34   138   137   ar
    35    61    64    1
    36    61    62    1
    37   137   136    1
    38    38    39    1
    39    72    73   ar
    40    72    71    1
    41    40    33   am
    42    34    33    2
    43    33    32    1
    44    64    66    1
    45    32    31    1
    46    71    68    1
    47    67    62   am
    48    67    68    1
    49    43    42    2
    50    62    63    2
    51   144   145    1
    52   144   141    1
    53   134   133    2
    54   136   135    1
    55   145   146    1
    56    24    22    1
    57   142   143    2
    58   142   141    1
    59    70    69    2
    60    68    69    1
    61    93    92    1
    62    31    27   am
    63   135   132    1
    64    23    22    1
    65   141   140    1
    66    22    21    2
    67   133   140   am
    68   133   132    1
    69   146   147    1
    70    69    77   am
    71    21    20    1
    72   147   148    1
    73   132   131    1
    74    92    91    1
    75    91    90    1
    76    27    28    2
    77    27    26    1
    78    90    89    1
    79   156   154    1
    80    20    19    1
    81    77    78    1
    82    52    50    1
    83    30    29    1
    84   131   124   am
    85   155   153    1
    86    26    29    1
    87    26    25    1
    88   154   153    1
    89    78    79    1
    90    78    81    1
    91    51    50    1
    92    82    81    1
    93    82    84    1
    94    50    47    1
    95    89    86    1
    96    85    79   am
    97    85    86    1
    98    19    18    1
    99   153   150    1
   100   124   125    2
   101   124   123    1
   102    79    80    2
   103    81    83    1
   104   150   149    1
   105   150   151    1
   106    86    87    1
   107    18    15    1
   108   123   126    1
   109   123   122    1
   110    47    48    1
   111    47    46    1
   112   126   127    1
   113    48    49    2
   114   113   112    1
   115   112   110   ar
   116   112   111   ar
   117   151   152    2
   118   110   108   ar
   119    87    88    2
   120   111   109   ar
   121   108   107   ar
   122    16    15    1
   123    16    17    2
   124   109   107   ar
   125   107   106    1
   126    15    14    1
   127   117   116    2
   128   122   116   am
   129   106   103    1
   130   127   128    1
   131   116   115    1
   132   120   119    1
   133   119   121    1
   134   119   118    1
   135   105   104    2
   136   128   129    1
   137    97    96    2
   138   103   104    1
   139   103   102    1
   140   115   118    1
   141   115   114    1
   142    96   102   am
   143    96    95    1
   144   129   130    1
   145    98    95    1
   146    98    99    1
   147    95    94    1
   148   100    99    1
   149   101    99    1
