@<TRIPOS>MOLECULE
tmp/1aynA00.pdb
 211 202 0 0 0
SMALL
GASTEIGER

@<TRIPOS>ATOM
      1  N         48.3710    9.6160  126.4220 N.3    77  ILE77      -0.1245
      2  CA        47.2120    9.2040  127.2070 C.3    77  ILE77       0.1561
      3  C         47.6010    8.4070  128.4460 C.2    77  ILE77       0.2260
      4  O         46.7610    8.1520  129.3050 O.2    77  ILE77      -0.2867
      5  CB        46.2180    8.3500  126.3880 C.3    77  ILE77       0.0252
      6  CG1       46.8540    7.0210  125.9820 C.3    77  ILE77       0.0019
      7  CG2       45.7770    9.0970  125.1620 C.3    77  ILE77       0.0019
      8  CD1       45.8690    6.0470  125.3760 C.3    77  ILE77       0.0001
      9  N         47.3720   -1.7150  133.1110 N.3    96  TRP96      -0.1241
     10  CA        46.6890   -0.4330  133.0930 C.3    96  TRP96       0.1605
     11  C         45.3190   -0.6160  132.4750 C.2    96  TRP96       0.2264
     12  O         45.1950   -1.2080  131.4110 O.2    96  TRP96      -0.2867
     13  CB        47.4880    0.5890  132.2790 C.3    96  TRP96       0.0550
     14  CG        46.7710    1.8930  132.0730 C.ar   96  TRP96       0.0003
     15  CD1       46.2800    2.7230  133.0410 C.ar   96  TRP96       0.0946
     16  CD2       46.4570    2.5120  130.8180 C.ar   96  TRP96       0.0152
     17  NE1       45.6810    3.8190  132.4660 N.ar   96  TRP96      -0.2442
     18  CE2       45.7740    3.7170  131.1090 C.ar   96  TRP96       0.0810
     19  CE3       46.6850    2.1660  129.4830 C.ar   96  TRP96       0.0012
     20  CZ2       45.3160    4.5780  130.1030 C.ar   96  TRP96       0.0191
     21  CZ3       46.2270    3.0290  128.4830 C.ar   96  TRP96       0.0001
     22  CH2       45.5500    4.2200  128.8030 C.ar   96  TRP96       0.0015
     23  N         42.8010    0.5590  130.4090 N.3    98  ILE98      -0.1231
     24  CA        42.7690    1.5220  129.3150 C.3    98  ILE98       0.1692
     25  C         41.6290    2.5230  129.3410 C.2    98  ILE98       0.2592
     26  O         40.4790    2.1550  129.5640 O.2    98  ILE98      -0.2718
     27  CB        42.7300    0.7880  127.9760 C.3    98  ILE98       0.0266
     28  CG1       43.8640   -0.2290  127.9170 C.3    98  ILE98       0.0019
     29  CG2       42.8860    1.7710  126.8360 C.3    98  ILE98       0.0020
     30  CD1       43.7040   -1.2250  126.8250 C.3    98  ILE98       0.0001
     31  N         41.9600    3.7850  129.0740 N.am   99  ASN99      -0.1960
     32  CA        40.9720    4.8640  129.0400 C.3    99  ASN99       0.1819
     33  C         41.6250    6.1330  128.5000 C.2    99  ASN99       0.2621
     34  O         42.8530    6.2330  128.4700 O.2    99  ASN99      -0.2715
     35  CB        40.4020    5.1260  130.4420 C.3    99  ASN99       0.1195
     36  CG        41.3650    5.8640  131.3340 C.2    99  ASN99       0.2630
     37  OD1       41.3320    7.0900  131.4100 O.2    99  ASN99      -0.2716
     38  ND2       42.2450    5.1360  131.9900 N.am   99  ASN99      -0.0877
     39  N         40.8070    7.0840  128.0550 N.am  100  LEU100     -0.1963
     40  CA        41.3040    8.3590  127.5380 C.3   100  LEU100      0.1728
     41  C         40.9420    9.4950  128.4990 C.2   100  LEU100      0.2616
     42  O         40.9000   10.6600  128.1080 O.2   100  LEU100     -0.2715
     43  CB        40.6990    8.6580  126.1650 C.3   100  LEU100      0.0311
     44  CG        40.9960    7.7560  124.9650 C.3   100  LEU100      0.0022
     45  CD1       40.4000    8.4120  123.7310 C.3   100  LEU100      0.0001
     46  CD2       42.4870    7.5580  124.7700 C.3   100  LEU100      0.0001
     47  N         40.7120    9.1460  129.7600 N.am  101  GLN101     -0.1977
     48  CA        40.3060   10.0980  130.7880 C.3   101  GLN101      0.1601
     49  C         41.3980   10.6290  131.7160 C.2   101  GLN101      0.2287
     50  O         41.1620   11.5770  132.4690 O.2   101  GLN101     -0.2864
     51  CB        39.2200    9.4430  131.6380 C.3   101  GLN101      0.0394
     52  CG        37.9860    9.0210  130.8640 C.3   101  GLN101      0.0908
     53  CD        36.9130   10.0600  130.9370 C.2   101  GLN101      0.2608
     54  OE1       36.4960   10.4480  132.0230 O.2   101  GLN101     -0.2717
     55  NE2       36.4860   10.5580  129.7980 N.am  101  GLN101     -0.0878
     56  N         35.5620    6.3770  116.0600 N.3   118  PHE118     -0.1241
     57  CA        36.8460    6.4900  115.3730 C.3   118  PHE118      0.1605
     58  C         37.7360    5.2720  115.5840 C.2   118  PHE118      0.2264
     59  O         37.4900    4.4530  116.4790 O.2   118  PHE118     -0.2867
     60  CB        37.5850    7.7300  115.8830 C.3   118  PHE118      0.0534
     61  CG        37.7340    7.7760  117.3850 C.ar  118  PHE118     -0.0203
     62  CD1       38.7750    7.1030  118.0180 C.ar  118  PHE118     -0.0042
     63  CD2       36.8190    8.4780  118.1660 C.ar  118  PHE118     -0.0042
     64  CE1       38.9030    7.1260  119.3960 C.ar  118  PHE118     -0.0003
     65  CE2       36.9400    8.5060  119.5510 C.ar  118  PHE118     -0.0003
     66  CZ        37.9850    7.8270  120.1650 C.ar  118  PHE118     -0.0000
     67  N         41.6870    3.8690  116.2580 N.3   120  SER120     -0.1217
     68  CA        42.7790    4.4120  117.0390 C.3   120  SER120      0.1889
     69  C         44.1470    4.0020  116.5520 C.2   120  SER120      0.2288
     70  O         44.3480    2.8640  116.1300 O.2   120  SER120     -0.2866
     71  CB        42.6340    3.9820  118.4990 C.3   120  SER120      0.2089
     72  OG        41.3990    4.4090  119.0490 O.3   120  SER120     -0.2183
     73  N         47.9000    3.7990  117.9640 N.3   122  ILE122     -0.1245
     74  CA        48.6460    3.8370  119.2090 C.3   122  ILE122      0.1561
     75  C         50.1460    3.7760  118.9230 C.2   122  ILE122      0.2260
     76  O         50.6120    2.8620  118.2420 O.2   122  ILE122     -0.2867
     77  CB        48.2360    2.6450  120.1240 C.3   122  ILE122      0.0252
     78  CG1       46.7450    2.7230  120.4680 C.3   122  ILE122      0.0019
     79  CG2       49.0700    2.6260  121.3920 C.3   122  ILE122      0.0019
     80  CD1       46.3430    3.9940  121.1770 C.3   122  ILE122      0.0001
     81  N         53.9390    3.9790  120.8550 N.3   124  MET124     -0.1245
     82  CA        54.5220    3.8960  122.1830 C.3   124  MET124      0.1570
     83  C         55.9500    4.4140  122.1640 C.2   124  MET124      0.2261
     84  O         56.7040    4.1210  121.2430 O.2   124  MET124     -0.2867
     85  CB        54.4870    2.4550  122.6700 C.3   124  MET124      0.0387
     86  CG        53.1000    1.8670  122.7000 C.3   124  MET124      0.0595
     87  SD        53.1640    0.1610  123.1570 S.3   124  MET124     -0.1393
     88  CE        51.6630    0.0160  124.0100 C.3   124  MET124      0.0692
     89  N         47.5910   -6.7800  124.8770 N.3   144  TYR144     -0.1241
     90  CA        46.2590   -6.2090  124.9850 C.3   144  TYR144      0.1605
     91  C         45.3110   -7.2830  125.5120 C.2   144  TYR144      0.2264
     92  O         45.0070   -8.2500  124.8100 O.2   144  TYR144     -0.2867
     93  CB        45.7840   -5.6850  123.6190 C.3   144  TYR144      0.0534
     94  CG        44.3700   -5.1430  123.6310 C.ar  144  TYR144     -0.0201
     95  CD1       43.9870   -4.1670  124.5480 C.ar  144  TYR144     -0.0009
     96  CD2       43.4040   -5.6420  122.7600 C.ar  144  TYR144     -0.0009
     97  CE1       42.6810   -3.7060  124.6030 C.ar  144  TYR144      0.0417
     98  CE2       42.0900   -5.1860  122.8070 C.ar  144  TYR144      0.0417
     99  CZ        41.7350   -4.2170  123.7350 C.ar  144  TYR144      0.1957
    100  OH        40.4330   -3.7690  123.8180 O.3   144  TYR144     -0.2866
    101  N         50.6260    0.6200  116.2400 N.3   179  PHE179     -0.1241
    102  CA        49.6120   -0.2570  115.6630 C.3   179  PHE179      0.1605
    103  C         48.2540    0.4270  115.6980 C.2   179  PHE179      0.2264
    104  O         48.0620    1.4030  116.4280 O.2   179  PHE179     -0.2867
    105  CB        49.5640   -1.6020  116.3950 C.3   179  PHE179      0.0534
    106  CG        49.3430   -1.4920  117.8740 C.ar  179  PHE179     -0.0203
    107  CD1       48.0570   -1.4720  118.3980 C.ar  179  PHE179     -0.0042
    108  CD2       50.4220   -1.3930  118.7430 C.ar  179  PHE179     -0.0042
    109  CE1       47.8430   -1.3540  119.7680 C.ar  179  PHE179     -0.0003
    110  CE2       50.2240   -1.2740  120.1160 C.ar  179  PHE179     -0.0003
    111  CZ        48.9300   -1.2530  120.6320 C.ar  179  PHE179     -0.0000
    112  N         43.9320    0.1640  115.9990 N.3   181  LEU181     -0.1245
    113  CA        42.8290   -0.5580  116.6590 C.3   181  LEU181      0.1561
    114  C         41.4860   -0.1270  116.0630 C.2   181  LEU181      0.2260
    115  O         41.1620    1.0680  116.0240 O.2   181  LEU181     -0.2867
    116  CB        42.7840   -0.2230  118.1520 C.3   181  LEU181      0.0270
    117  CG        43.7390   -1.0580  119.0050 C.3   181  LEU181      0.0019
    118  CD1       43.6330   -0.7380  120.5000 C.3   181  LEU181      0.0001
    119  CD2       43.4950   -2.5630  118.8870 C.3   181  LEU181      0.0001
    120  N         36.2570   -0.1700  118.7700 N.3   184  LEU184     -0.1245
    121  CA        36.1080   -1.3120  119.7070 C.3   184  LEU184      0.1561
    122  C         34.7570   -1.4330  120.4540 C.2   184  LEU184      0.2260
    123  O         34.4820   -2.4470  121.1100 O.2   184  LEU184     -0.2867
    124  CB        37.1480   -1.2220  120.8260 C.3   184  LEU184      0.0270
    125  CG        38.5850   -1.1250  120.3150 C.3   184  LEU184      0.0019
    126  CD1       39.5840   -0.7640  121.4180 C.3   184  LEU184      0.0001
    127  CD2       39.0930   -2.4330  119.7080 C.3   184  LEU184      0.0001
    128  N         31.2160    5.7440  120.7090 N.3   190  TYR190     -0.1227
    129  CA        31.7370    5.8000  122.0680 C.3   190  TYR190      0.1736
    130  C         30.9580    6.8700  122.8150 C.2   190  TYR190      0.2595
    131  O         30.6980    7.9470  122.2630 O.2   190  TYR190     -0.2718
    132  CB        33.2100    6.2080  122.0730 C.3   190  TYR190      0.0548
    133  CG        34.1710    5.1680  121.5540 C.ar  190  TYR190     -0.0200
    134  CD1       34.1230    3.8540  122.0100 C.ar  190  TYR190     -0.0009
    135  CD2       35.1570    5.5110  120.6290 C.ar  190  TYR190     -0.0009
    136  CE1       35.0360    2.9070  121.5560 C.ar  190  TYR190      0.0417
    137  CE2       36.0760    4.5710  120.1700 C.ar  190  TYR190      0.0417
    138  CZ        36.0110    3.2740  120.6320 C.ar  190  TYR190      0.1957
    139  OH        36.9160    2.3490  120.1560 O.3   190  TYR190     -0.2866
    140  N         30.5550    6.5680  124.0450 N.am  191  TYR191     -0.1962
    141  CA        29.8460    7.5420  124.8580 C.3   191  TYR191      0.1771
    142  C         30.8910    8.4470  125.4780 C.2   191  TYR191      0.2619
    143  O         31.8160    7.9710  126.1200 O.2   191  TYR191     -0.2715
    144  CB        29.0900    6.8730  126.0010 C.3   191  TYR191      0.0574
    145  CG        27.7930    6.2100  125.6250 C.ar  191  TYR191     -0.0198
    146  CD1       26.6100    6.9410  125.5490 C.ar  191  TYR191     -0.0009
    147  CD2       27.7340    4.8400  125.3970 C.ar  191  TYR191     -0.0009
    148  CE1       25.3980    6.3200  125.2600 C.ar  191  TYR191      0.0417
    149  CE2       26.5320    4.2150  125.1090 C.ar  191  TYR191      0.0417
    150  CZ        25.3690    4.9570  125.0450 C.ar  191  TYR191      0.1957
    151  OH        24.1820    4.3230  124.7760 O.3   191  TYR191     -0.2866
    152  N         30.7950    9.7420  125.2320 N.am  192  MET192     -0.1977
    153  CA        31.7360   10.6650  125.8480 C.3   192  MET192      0.1605
    154  C         31.1220   11.0730  127.1810 C.2   192  MET192      0.2287
    155  O         31.8260   11.4060  128.1290 O.2   192  MET192     -0.2864
    156  CB        31.9850   11.8810  124.9610 C.3   192  MET192      0.0413
    157  CG        32.6060   11.5510  123.6160 C.3   192  MET192      0.0598
    158  SD        34.1030   10.5390  123.7660 S.3   192  MET192     -0.1393
    159  CE        35.1000   11.5650  124.7880 C.3   192  MET192      0.0692
    160  N         32.0940    2.3780  128.9880 N.3   212  ASN212     -0.1240
    161  CA        33.4060    2.3800  128.3490 C.3   212  ASN212      0.1653
    162  C         34.5050    1.4650  128.8720 C.2   212  ASN212      0.2266
    163  O         35.4940    1.9560  129.4020 O.2   212  ASN212     -0.2867
    164  CB        33.9460    3.8160  128.2900 C.3   212  ASN212      0.1155
    165  CG        32.9880    4.7850  127.6080 C.2   212  ASN212      0.2627
    166  OD1       31.9180    4.4050  127.1280 O.2   212  ASN212     -0.2716
    167  ND2       33.3660    6.0480  127.5770 N.am  212  ASN212     -0.0877
    168  N         37.4890   -0.7820  127.8680 N.3   214  MET214     -0.1245
    169  CA        38.3530   -1.1310  126.7420 C.3   214  MET214      0.1570
    170  C         39.4080   -2.1830  127.0820 C.2   214  MET214      0.2261
    171  O         40.3280   -2.4210  126.2970 O.2   214  MET214     -0.2867
    172  CB        39.0430    0.1190  126.1790 C.3   214  MET214      0.0387
    173  CG        38.1250    1.3000  125.9530 C.3   214  MET214      0.0595
    174  SD        36.5490    0.8190  125.2220 S.3   214  MET214     -0.1393
    175  CE        37.0280    0.5840  123.5690 C.3   214  MET214      0.0692
    176  N         45.9550   -3.1630  129.4710 N.3   217  LEU217     -0.1245
    177  CA        47.2270   -3.2390  128.7690 C.3   217  LEU217      0.1561
    178  C         48.2190   -3.7500  129.8110 C.2   217  LEU217      0.2260
    179  O         48.4310   -3.0970  130.8360 O.2   217  LEU217     -0.2867
    180  CB        47.6840   -1.8570  128.2870 C.3   217  LEU217      0.0270
    181  CG        49.0720   -1.8550  127.6320 C.3   217  LEU217      0.0019
    182  CD1       48.9790   -2.5290  126.2740 C.3   217  LEU217      0.0001
    183  CD2       49.6130   -0.4500  127.4850 C.3   217  LEU217      0.0001
    184  N         52.2620    6.0950  126.1720 N.3   236  ILE236     -0.1245
    185  CA        51.3050    5.6750  125.1540 C.3   236  ILE236      0.1561
    186  C         50.6820    6.9130  124.5120 C.2   236  ILE236      0.2260
    187  O         50.1560    7.7830  125.2140 O.2   236  ILE236     -0.2867
    188  CB        50.1500    4.8220  125.7720 C.3   236  ILE236      0.0252
    189  CG1       50.7020    3.7280  126.6930 C.3   236  ILE236      0.0019
    190  CG2       49.3010    4.2030  124.6720 C.3   236  ILE236      0.0019
    191  CD1       51.6280    2.7500  126.0150 C.3   236  ILE236      0.0001
    192  N         47.9320    8.3780  121.5950 N.3   238  HIS238     -0.1241
    193  CA        46.7390    7.9710  120.8760 C.3   238  HIS238      0.1621
    194  C         46.2820    9.0050  119.8700 C.2   238  HIS238      0.2264
    195  O         46.1740   10.1920  120.1890 O.2   238  HIS238     -0.2867
    196  CB        45.6070    7.7010  121.8720 C.3   238  HIS238      0.0745
    197  CG        44.2720    7.5080  121.2270 C.ar  238  HIS238      0.0817
    198  ND1       43.4580    8.5420  120.8150 N.ar  238  HIS238     -0.2268
    199  CD2       43.6180    6.3670  120.8930 C.ar  238  HIS238      0.1154
    200  CE1       42.3640    8.0090  120.2540 C.ar  238  HIS238      0.1986
    201  NE2       42.4150    6.6910  120.2780 N.ar  238  HIS238     -0.2212
    202  N         36.1960    9.1050  134.1790 N.3   260  HIS260     -0.1241
    203  CA        34.8080    8.7350  133.9500 C.3   260  HIS260      0.1621
    204  C         33.7450    9.5510  134.6760 C.2   260  HIS260      0.2264
    205  O         32.5890    9.1410  134.7430 O.2   260  HIS260     -0.2867
    206  CB        34.6230    7.2450  134.2210 C.3   260  HIS260      0.0745
    207  CG        35.3320    6.3710  133.2400 C.ar  260  HIS260      0.0817
    208  ND1       36.4020    5.5980  133.6060 N.ar  260  HIS260     -0.2268
    209  CD2       35.0870    6.1910  131.9200 C.ar  260  HIS260      0.1154
    210  CE1       36.7860    4.9680  132.5130 C.ar  260  HIS260      0.1986
    211  NE2       36.0120    5.2960  131.4620 N.ar  260  HIS260     -0.2212
@<TRIPOS>BOND
     1    57    58    1
     2    57    60    1
     3    57    56    1
     4    58    59    2
     5   102   103    1
     6   102   101    1
     7   102   105    1
     8   103   104    2
     9    60    61    1
    10   112   113    1
    11   115   114    2
    12   114   113    1
    13    70    69    2
    14    67    68    1
    15   105   106    1
    16    69    68    1
    17   113   116    1
    18    68    71    1
    19    61    62   ar
    20    61    63   ar
    21   106   107   ar
    22   106   108   ar
    23    73    74    1
    24    62    64   ar
    25   116   117    1
    26    63    65   ar
    27    76    75    2
    28   107   109   ar
    29    71    72    1
    30   108   110   ar
    31   120   121    1
    32   119   117    1
    33    75    74    1
    34   117   118    1
    35    74    77    1
    36    64    66   ar
    37    65    66   ar
    38   121   122    1
    39   121   124    1
    40   127   125    1
    41   109   111   ar
    42   194   195    2
    43   194   193    1
    44   110   111   ar
    45    77    78    1
    46    77    79    1
    47   139   138    1
    48   137   135   ar
    49   137   138   ar
    50   200   201   ar
    51   200   198   ar
    52   201   199   ar
    53   125   124    1
    54   125   126    1
    55   122   123    2
    56    78    80    1
    57   135   133   ar
    58   138   136   ar
    59   128   129    1
    60   198   197   ar
    61    81    82    1
    62   193   192    1
    63   193   196    1
    64   199   197   ar
    65   197   196    1
    66    84    83    2
    67   133   134   ar
    68   133   132    1
    69   136   134   ar
    70   129   132    1
    71   129   130    1
    72    83    82    1
    73    82    85    1
    74   131   130    2
    75    85    86    1
    76    86    87    1
    77    96    98   ar
    78    96    94   ar
    79    98    99   ar
    80   130   140   am
    81    87    88    1
    82   175   174    1
    83   157   158    1
    84   157   156    1
    85    93    94    1
    86    93    90    1
    87    94    95   ar
    88    45    44    1
    89    99   100    1
    90    99    97   ar
    91   158   159    1
    92   140   141    1
    93   186   185    1
    94   186   187    2
    95    95    97   ar
    96   190   188    1
    97    46    44    1
    98   151   150    1
    99    92    91    2
   100   141   142    1
   101   141   144    1
   102    89    90    1
   103   156   153    1
   104    44    43    1
   105    90    91    1
   106   150   149   ar
   107   150   148   ar
   108   149   147   ar
   109   185   188    1
   110   185   184    1
   111     7     5    1
   112   174   173    1
   113   152   142   am
   114   152   153    1
   115   148   146   ar
   116     8     6    1
   117   147   145   ar
   118   142   143    2
   119   146   145   ar
   120   145   144    1
   121   188   189    1
   122   153   154    1
   123   173   172    1
   124     6     5    1
   125   191   189    1
   126    43    40    1
   127   172   169    1
   128   182   181    1
   129   171   170    2
   130     5     2    1
   131     1     2    1
   132   169   170    1
   133   169   168    1
   134    30    28    1
   135    29    27    1
   136   166   165    2
   137   154   155    2
   138     2     3    1
   139   183   181    1
   140    40    39    1
   141    40    41    1
   142   167   165   am
   143   165   164    1
   144   181   180    1
   145    28    27    1
   146    27    24    1
   147    39    33   am
   148    42    41    2
   149   180   177    1
   150   164   161    1
   151   161   162    1
   152   161   160    1
   153     3     4    2
   154    34    33    2
   155    21    22   ar
   156    21    19   ar
   157    41    47   am
   158    33    32    1
   159   177   176    1
   160   177   178    1
   161    22    20   ar
   162   162   163    2
   163    32    31    1
   164    32    35    1
   165    31    25   am
   166    24    25    1
   167    24    23    1
   168    25    26    2
   169    19    16   ar
   170    47    48    1
   171    55    53   am
   172   178   179    2
   173    20    18   ar
   174    35    36    1
   175    48    51    1
   176    48    49    1
   177    16    18   ar
   178    16    14   ar
   179    52    53    1
   180    52    51    1
   181    53    54    2
   182    18    17   ar
   183    36    37    2
   184    36    38   am
   185    12    11    2
   186   211   209   ar
   187   211   210   ar
   188    49    50    2
   189   209   207   ar
   190    14    13    1
   191    14    15   ar
   192    13    10    1
   193    17    15   ar
   194    11    10    1
   195   210   208   ar
   196    10     9    1
   197   207   208   ar
   198   207   206    1
   199   203   202    1
   200   203   206    1
   201   203   204    1
   202   204   205    2
