@<TRIPOS>MOLECULE
tmp/1ayuA00.pdb
 212 210 0 0 0
SMALL
GASTEIGER

@<TRIPOS>ATOM
      1  N        -28.5860  -11.7080   65.1000 N.3    18  ASN18      -0.1225
      2  CA       -27.9290  -11.2390   63.8930 C.3    18  ASN18       0.1785
      3  C        -26.4100  -11.4670   63.9890 C.2    18  ASN18       0.2597
      4  O        -25.7010  -10.7450   64.6840 O.2    18  ASN18      -0.2718
      5  CB       -28.2510   -9.7490   63.6930 C.3    18  ASN18       0.1169
      6  CG       -27.7380   -9.2070   62.3740 C.2    18  ASN18       0.2627
      7  OD1      -27.3370   -9.9530   61.4870 O.2    18  ASN18      -0.2716
      8  ND2      -27.7470   -7.8970   62.2410 N.am   18  ASN18      -0.0877
      9  N        -25.9200  -12.4680   63.2720 N.am   19  GLN19      -0.1965
     10  CA       -24.5010  -12.8070   63.2680 C.3    19  GLN19       0.1733
     11  C        -23.5880  -11.6540   62.8430 C.2    19  GLN19       0.2617
     12  O        -22.4480  -11.5610   63.3040 O.2    19  GLN19      -0.2715
     13  CB       -24.2290  -14.0480   62.3890 C.3    19  GLN19       0.0408
     14  CG       -24.5910  -13.9060   60.9100 C.3    19  GLN19       0.0908
     15  CD       -24.3100  -15.1660   60.1000 C.2    19  GLN19       0.2608
     16  OE1      -25.1500  -16.0600   59.9990 O.2    19  GLN19      -0.2717
     17  NE2      -23.1300  -15.2320   59.5040 N.am   19  GLN19      -0.0878
     18  N        -24.0910  -10.7650   61.9930 N.am   20  GLY20      -0.1940
     19  CA       -23.2840   -9.6460   61.5350 C.3    20  GLY20       0.2014
     20  C        -22.3100  -10.0740   60.4540 C.2    20  GLY20       0.2639
     21  O        -22.5940  -10.9840   59.6690 O.2    20  GLY20      -0.2714
     22  N        -21.1530   -9.4280   60.4140 N.am   21  GLN21      -0.1963
     23  CA       -20.1350   -9.7520   59.4110 C.3    21  GLN21       0.1733
     24  C        -19.1510  -10.7770   59.9750 C.2    21  GLN21       0.2616
     25  O        -17.9530  -10.5090   60.1280 O.2    21  GLN21      -0.2715
     26  CB       -19.4040   -8.4840   58.9630 C.3    21  GLN21       0.0408
     27  CG       -20.2230   -7.5900   58.0570 C.3    21  GLN21       0.0908
     28  CD       -20.4830   -8.2270   56.6880 C.2    21  GLN21       0.2608
     29  OE1      -19.8810   -9.2550   56.3320 O.2    21  GLN21      -0.2717
     30  NE2      -21.3660   -7.6040   55.9020 N.am   21  GLN21      -0.0878
     31  N        -19.6820  -11.9490   60.2990 N.am   22  CYS22      -0.1954
     32  CA       -18.8970  -13.0350   60.8640 C.3    22  CYS22       0.1843
     33  C        -19.5950  -14.3200   60.4640 C.2    22  CYS22       0.2626
     34  O        -20.8210  -14.3970   60.4980 O.2    22  CYS22      -0.2714
     35  CB       -18.8300  -12.9010   62.4020 C.3    22  CYS22       0.0997
     36  SG       -18.1300  -14.3180   63.3300 S.3    22  CYS22      -0.0797
     37  N        -18.8120  -15.3000   60.0260 N.am   23  GLY23      -0.1954
     38  CA       -19.3590  -16.5830   59.6270 C.3    23  GLY23       0.1869
     39  C        -19.6150  -17.4780   60.8290 C.2    23  GLY23       0.2309
     40  O        -19.2260  -18.6480   60.8440 O.2    23  GLY23      -0.2863
     41  N        -22.5860  -18.4550   61.7880 N.3    25  CYS25      -0.1221
     42  CA       -23.9010  -19.0780   61.6480 C.3    25  CYS25       0.1808
     43  C        -23.9470  -20.4680   62.2910 C.2    25  CYS25       0.2601
     44  O        -24.9530  -20.8480   62.8900 O.2    25  CYS25      -0.2717
     45  CB       -24.3130  -19.1510   60.1720 C.3    25  CYS25       0.0970
     46  SG       -23.1180  -20.0040   59.0580 S.3    25  CYS25      -0.0800
     47  N        -22.8300  -21.1900   62.2130 N.am   26  TRP26      -0.1976
     48  CA       -22.7000  -22.5260   62.7870 C.3    26  TRP26       0.1640
     49  C        -22.8680  -22.4710   64.3050 C.2    26  TRP26       0.2290
     50  O        -23.4570  -23.3650   64.9090 O.2    26  TRP26      -0.2864
     51  CB       -21.3320  -23.1330   62.4150 C.3    26  TRP26       0.0576
     52  CG       -20.1230  -22.3240   62.8810 C.ar   26  TRP26       0.0006
     53  CD1      -19.5000  -21.3120   62.2010 C.ar   26  TRP26       0.0946
     54  CD2      -19.4320  -22.4420   64.1420 C.ar   26  TRP26       0.0152
     55  NE1      -18.4760  -20.7890   62.9610 N.ar   26  TRP26      -0.2442
     56  CE2      -18.4160  -21.4570   64.1550 C.ar   26  TRP26       0.0810
     57  CE3      -19.5810  -23.2720   65.2610 C.ar   26  TRP26       0.0012
     58  CZ2      -17.5600  -21.2850   65.2450 C.ar   26  TRP26       0.0191
     59  CZ3      -18.7280  -23.0990   66.3400 C.ar   26  TRP26       0.0001
     60  CH2      -17.7340  -22.1110   66.3260 C.ar   26  TRP26       0.0015
     61  N        -11.4860  -26.8800   66.9150 N.3    59  GLU59      -0.1231
     62  CA       -11.6160  -27.6750   65.7000 C.3    59  GLU59       0.1699
     63  C        -12.3740  -26.8930   64.6180 C.2    59  GLU59       0.2592
     64  O        -12.4840  -27.3410   63.4880 O.2    59  GLU59      -0.2718
     65  CB       -12.3260  -29.0020   65.9890 C.3    59  GLU59       0.0402
     66  CG       -11.5730  -29.9630   66.9220 C.3    59  GLU59       0.1161
     67  CD       -11.6620  -29.5940   68.4000 C.2    59  GLU59       0.3649
     68  OE1      -12.6880  -29.0280   68.8520 O.co2  59  GLU59      -0.2457
     69  OE2      -10.6890  -29.8820   69.1220 O.co2  59  GLU59      -0.2457
     70  N        -12.9130  -25.7340   64.9850 N.am   60  ASN60      -0.1960
     71  CA       -13.6520  -24.8730   64.0610 C.3    60  ASN60       0.1819
     72  C        -12.8130  -23.6530   63.7310 C.2    60  ASN60       0.2621
     73  O        -11.7630  -23.4360   64.3460 O.2    60  ASN60      -0.2715
     74  CB       -14.9930  -24.4430   64.6600 C.3    60  ASN60       0.1195
     75  CG       -16.0770  -25.5060   64.5080 C.2    60  ASN60       0.2630
     76  OD1      -17.1640  -25.3800   65.0750 O.2    60  ASN60      -0.2716
     77  ND2      -15.7940  -26.5520   63.7400 N.am   60  ASN60      -0.0877
     78  N        -13.2770  -22.8490   62.7800 N.am   61  ASP61      -0.1971
     79  CA       -12.5260  -21.6670   62.3750 C.3    61  ASP61       0.1709
     80  C        -13.1260  -20.3120   62.7390 C.2    61  ASP61       0.2293
     81  O        -12.8920  -19.3210   62.0440 O.2    61  ASP61      -0.2864
     82  CB       -12.2210  -21.7430   60.8790 C.3    61  ASP61       0.1436
     83  CG       -11.5360  -23.0430   60.4970 C.2    61  ASP61       0.3671
     84  OD1      -10.5350  -23.4090   61.1560 O.co2  61  ASP61      -0.2456
     85  OD2      -12.0150  -23.7180   59.5650 O.co2  61  ASP61      -0.2456
     86  N        -14.9550  -17.0690   62.9600 N.3    63  CYS63      -0.1221
     87  CA       -15.7050  -16.2820   61.9880 C.3    63  CYS63       0.1808
     88  C        -15.4880  -16.7900   60.5620 C.2    63  CYS63       0.2602
     89  O        -16.1890  -16.3940   59.6320 O.2    63  CYS63      -0.2717
     90  CB       -15.3670  -14.7920   62.1000 C.3    63  CYS63       0.0970
     91  SG       -16.1400  -13.9440   63.5260 S.3    63  CYS63      -0.0800
     92  N        -14.5470  -17.7130   60.4080 N.am   64  GLY64      -0.1942
     93  CA       -14.2720  -18.2700   59.1000 C.3    64  GLY64       0.2014
     94  C        -15.1050  -19.5020   58.7940 C.2    64  GLY64       0.2639
     95  O        -14.9520  -20.1040   57.7280 O.2    64  GLY64      -0.2714
     96  N        -15.9430  -19.9200   59.7400 N.am   65  GLY65      -0.1939
     97  CA       -16.7790  -21.0820   59.5180 C.3    65  GLY65       0.2014
     98  C        -16.5350  -22.2050   60.5050 C.2    65  GLY65       0.2639
     99  O        -15.5430  -22.2000   61.2400 O.2    65  GLY65      -0.2714
    100  N        -17.4370  -23.1830   60.5150 N.am   66  GLY66      -0.1939
    101  CA       -17.2920  -24.3130   61.4120 C.3    66  GLY66       0.2014
    102  C        -18.4090  -25.3230   61.2650 C.2    66  GLY66       0.2639
    103  O        -19.2460  -25.1860   60.3650 O.2    66  GLY66      -0.2714
    104  N        -18.4050  -26.3370   62.1320 N.am   67  TYR67      -0.1959
    105  CA       -19.4180  -27.3930   62.1480 C.3    67  TYR67       0.1771
    106  C        -20.1210  -27.4640   63.5090 C.2    67  TYR67       0.2619
    107  O        -19.4820  -27.3090   64.5410 O.2    67  TYR67      -0.2715
    108  CB       -18.7760  -28.7400   61.8320 C.3    67  TYR67       0.0574
    109  CG       -18.2950  -28.8390   60.4140 C.ar   67  TYR67      -0.0198
    110  CD1      -17.1510  -28.1630   59.9990 C.ar   67  TYR67      -0.0009
    111  CD2      -19.0200  -29.5550   59.4700 C.ar   67  TYR67      -0.0009
    112  CE1      -16.7420  -28.1870   58.6730 C.ar   67  TYR67       0.0417
    113  CE2      -18.6190  -29.5890   58.1270 C.ar   67  TYR67       0.0417
    114  CZ       -17.4830  -28.8980   57.7390 C.ar   67  TYR67       0.1957
    115  OH       -17.1170  -28.8790   56.4170 O.3    67  TYR67      -0.2866
    116  N        -21.4260  -27.7340   63.5020 N.am   68  MET68      -0.1977
    117  CA       -22.2190  -27.8110   64.7310 C.3    68  MET68       0.1605
    118  C        -21.8450  -29.0160   65.6110 C.2    68  MET68       0.2287
    119  O        -21.8860  -28.9450   66.8360 O.2    68  MET68      -0.2864
    120  CB       -23.7210  -27.8300   64.4080 C.3    68  MET68       0.0413
    121  CG       -24.2560  -26.5970   63.6340 C.3    68  MET68       0.0598
    122  SD       -24.0460  -26.6160   61.7910 S.3    68  MET68      -0.1393
    123  CE       -25.4180  -27.6580   61.3070 C.3    68  MET68       0.0692
    124  N        -18.9400  -30.2100   65.9870 N.3    70  ASN70      -0.1240
    125  CA       -17.7160  -29.8460   66.6950 C.3    70  ASN70       0.1653
    126  C        -18.0810  -29.0170   67.9070 C.2    70  ASN70       0.2266
    127  O        -17.5690  -29.2520   69.0030 O.2    70  ASN70      -0.2867
    128  CB       -16.7590  -29.0680   65.7900 C.3    70  ASN70       0.1155
    129  CG       -15.8870  -29.9740   64.9500 C.2    70  ASN70       0.2627
    130  OD1      -15.3540  -29.5560   63.9310 O.2    70  ASN70      -0.2716
    131  ND2      -15.7170  -31.2140   65.3880 N.am   70  ASN70      -0.0877
    132  N        -27.8590  -27.5030   57.8170 N.3   134  ALA134     -0.1245
    133  CA       -27.0270  -26.7250   56.9070 C.3   134  ALA134      0.1562
    134  C        -27.7540  -26.7330   55.5730 C.2   134  ALA134      0.2260
    135  O        -28.2890  -27.7590   55.1390 O.2   134  ALA134     -0.2867
    136  CB       -25.6530  -27.3440   56.7620 C.3   134  ALA134      0.0290
    137  N        -31.5470  -14.6440   49.6040 N.3   143  GLN143     -0.1245
    138  CA       -31.1910  -13.3790   50.2240 C.3   143  GLN143      0.1566
    139  C        -32.3840  -12.4290   50.3320 C.2   143  GLN143      0.2260
    140  O        -32.5730  -11.7540   51.3550 O.2   143  GLN143     -0.2867
    141  CB       -30.0650  -12.7160   49.4390 C.3   143  GLN143      0.0367
    142  CG       -29.6840  -11.3160   49.9400 C.3   143  GLN143      0.0905
    143  CD       -28.3580  -10.8080   49.3700 C.2   143  GLN143      0.2608
    144  OE1      -28.0500   -9.6240   49.4670 O.2   143  GLN143     -0.2717
    145  NE2      -27.5580  -11.7100   48.7970 N.am  143  GLN143     -0.0878
    146  N        -23.3840  -26.8850   50.6760 N.3   160  LEU160     -0.1231
    147  CA       -23.9140  -26.4680   51.9760 C.3   160  LEU160      0.1693
    148  C        -23.0420  -25.2950   52.4100 C.2   160  LEU160      0.2592
    149  O        -21.8220  -25.4220   52.4560 O.2   160  LEU160     -0.2718
    150  CB       -23.8280  -27.6120   52.9890 C.3   160  LEU160      0.0284
    151  CG       -24.4910  -28.9390   52.6180 C.3   160  LEU160      0.0019
    152  CD1      -24.4090  -29.8930   53.8080 C.3   160  LEU160      0.0001
    153  CD2      -25.9440  -28.7100   52.2270 C.3   160  LEU160      0.0001
    154  N        -23.6490  -24.1490   52.6960 N.am  161  ASN161     -0.1960
    155  CA       -22.8640  -22.9780   53.0730 C.3   161  ASN161      0.1819
    156  C        -23.4030  -22.1000   54.2000 C.2   161  ASN161      0.2621
    157  O        -22.8030  -21.0690   54.5400 O.2   161  ASN161     -0.2715
    158  CB       -22.5880  -22.1290   51.8320 C.3   161  ASN161      0.1195
    159  CG       -23.8220  -21.9200   50.9820 C.2   161  ASN161      0.2630
    160  OD1      -24.7670  -21.2410   51.3800 O.2   161  ASN161     -0.2716
    161  ND2      -23.8270  -22.5140   49.8100 N.am  161  ASN161     -0.0877
    162  N        -24.4660  -22.5500   54.8500 N.am  162  HIS162     -0.1959
    163  CA       -25.0710  -21.7790   55.9240 C.3   162  HIS162      0.1787
    164  C        -25.7100  -22.7560   56.9110 C.2   162  HIS162      0.2620
    165  O        -26.3740  -23.7140   56.5030 O.2   162  HIS162     -0.2715
    166  CB       -26.1220  -20.8260   55.3290 C.3   162  HIS162      0.0785
    167  CG       -26.5800  -19.7470   56.2650 C.ar  162  HIS162      0.0821
    168  ND1      -25.7270  -19.0830   57.1210 N.ar  162  HIS162     -0.2267
    169  CD2      -27.8080  -19.2200   56.4830 C.ar  162  HIS162      0.1154
    170  CE1      -26.4090  -18.2010   57.8310 C.ar  162  HIS162      0.1986
    171  NE2      -27.6760  -18.2650   57.4600 N.ar  162  HIS162     -0.2212
    172  N        -25.3990  -22.5840   58.1930 N.am  163  ALA163     -0.1977
    173  CA       -25.9590  -23.4330   59.2430 C.3   163  ALA163      0.1597
    174  C        -27.1690  -22.6470   59.7410 C.2   163  ALA163      0.2287
    175  O        -27.0980  -21.4230   59.9180 O.2   163  ALA163     -0.2864
    176  CB       -24.9530  -23.6560   60.3520 C.3   163  ALA163      0.0319
    177  N        -29.8250  -13.5180   60.5910 N.3   184  TRP184     -0.1241
    178  CA       -29.5030  -12.2770   59.8830 C.3   184  TRP184      0.1605
    179  C        -30.3460  -11.1050   60.4000 C.2   184  TRP184      0.2264
    180  O        -30.5060  -10.0850   59.7210 O.2   184  TRP184     -0.2867
    181  CB       -29.6860  -12.4540   58.3710 C.3   184  TRP184      0.0550
    182  CG       -28.7060  -13.4380   57.7630 C.ar  184  TRP184      0.0003
    183  CD1      -27.6030  -13.9760   58.3660 C.ar  184  TRP184      0.0946
    184  CD2      -28.7370  -13.9800   56.4360 C.ar  184  TRP184      0.0152
    185  NE1      -26.9480  -14.8080   57.4980 N.ar  184  TRP184     -0.2442
    186  CE2      -27.6200  -14.8280   56.3050 C.ar  184  TRP184      0.0810
    187  CE3      -29.6000  -13.8260   55.3420 C.ar  184  TRP184      0.0012
    188  CZ2      -27.3440  -15.5250   55.1260 C.ar  184  TRP184      0.0191
    189  CZ3      -29.3270  -14.5170   54.1710 C.ar  184  TRP184      0.0001
    190  CH2      -28.2090  -15.3530   54.0710 C.ar  184  TRP184      0.0015
    191  N        -35.1150   -9.3830   58.3690 N.3   188  TRP188     -0.1241
    192  CA       -34.8140  -10.1800   57.1750 C.3   188  TRP188      0.1605
    193  C        -35.8820  -11.2670   57.0310 C.2   188  TRP188      0.2264
    194  O        -36.4450  -11.7140   58.0360 O.2   188  TRP188     -0.2867
    195  CB       -33.4240  -10.8350   57.2820 C.3   188  TRP188      0.0550
    196  CG       -33.1560  -11.8450   56.1820 C.ar  188  TRP188      0.0003
    197  CD1      -32.6020  -11.5930   54.9650 C.ar  188  TRP188      0.0946
    198  CD2      -33.5360  -13.2350   56.1680 C.ar  188  TRP188      0.0152
    199  NE1      -32.6250  -12.7270   54.1840 N.ar  188  TRP188     -0.2442
    200  CE2      -33.1930  -13.7480   54.8930 C.ar  188  TRP188      0.0810
    201  CE3      -34.1420  -14.0900   57.1000 C.ar  188  TRP188      0.0012
    202  CZ2      -33.4380  -15.0800   54.5250 C.ar  188  TRP188      0.0191
    203  CZ3      -34.3880  -15.4170   56.7360 C.ar  188  TRP188      0.0001
    204  CH2      -34.0350  -15.8960   55.4570 C.ar  188  TRP188      0.0015
    205  N        -26.8200  -32.3460   56.4010 N.3   209  LEU209     -0.1245
    206  CA       -25.9200  -32.1950   57.5350 C.3   209  LEU209      0.1561
    207  C        -26.6910  -31.6750   58.7470 C.2   209  LEU209      0.2260
    208  O        -26.5440  -30.5200   59.1450 O.2   209  LEU209     -0.2867
    209  CB       -24.7920  -31.2240   57.1630 C.3   209  LEU209      0.0270
    210  CG       -23.5300  -31.1750   58.0230 C.3   209  LEU209      0.0019
    211  CD1      -22.7200  -32.4350   57.7740 C.3   209  LEU209      0.0001
    212  CD2      -22.7180  -29.9270   57.6810 C.3   209  LEU209      0.0001
@<TRIPOS>BOND
     1   145   143   am
     2   143   144    2
     3   143   142    1
     4   141   142    1
     5   141   138    1
     6   137   138    1
     7   161   159   am
     8   138   139    1
     9   139   140    2
    10   146   147    1
    11   159   160    2
    12   159   158    1
    13   158   155    1
    14   147   148    1
    15   147   150    1
    16   153   151    1
    17   148   149    2
    18   148   154   am
    19   151   150    1
    20   151   152    1
    21   154   155    1
    22   155   156    1
    23   190   189   ar
    24   190   188   ar
    25   189   187   ar
    26   199   200   ar
    27   199   197   ar
    28   156   157    2
    29   156   162   am
    30   202   200   ar
    31   202   204   ar
    32   162   163    1
    33   200   198   ar
    34   197   196   ar
    35   188   186   ar
    36   135   134    2
    37   166   163    1
    38   166   167    1
    39   187   184   ar
    40   204   203   ar
    41   134   133    1
    42    30    28   am
    43   163   164    1
    44   198   196   ar
    45   198   201   ar
    46   196   195    1
    47   167   169   ar
    48   167   168   ar
    49   186   184   ar
    50   186   185   ar
    51    29    28    2
    52   205   206    1
    53   115   114    1
    54   184   182   ar
    55   169   171   ar
    56   165   164    2
    57    28    27    1
    58   203   201   ar
    59   136   133    1
    60   133   132    1
    61   164   172   am
    62   193   192    1
    63   193   194    2
    64   168   170   ar
    65   209   206    1
    66   209   210    1
    67   192   195    1
    68   192   191    1
    69   171   170   ar
    70   185   183   ar
    71   206   207    1
    72   212   210    1
    73    95    94    2
    74   114   113   ar
    75   114   112   ar
    76   182   183   ar
    77   182   181    1
    78   211   210    1
    79    27    26    1
    80   113   111   ar
    81   172   173    1
    82   181   178    1
    83   112   110   ar
    84   207   208    2
    85    94    93    1
    86    94    96   am
    87    26    23    1
    88    46    45    1
    89    93    92    1
    90   173   174    1
    91   173   176    1
    92    23    24    1
    93    23    22    1
    94   111   109   ar
    95    17    15   am
    96    97    96    1
    97    97    98    1
    98    85    83   ar
    99    38    37    1
   100    38    39    1
   101    89    88    2
   102    21    20    2
   103   180   179    2
   104   174   175    2
   105   178   179    1
   106   178   177    1
   107    24    25    2
   108    24    31   am
   109   110   109   ar
   110    16    15    2
   111    37    33   am
   112    15    14    1
   113    45    42    1
   114    31    32    1
   115   103   102    2
   116    92    88   am
   117    22    20   am
   118   109   108    1
   119    20    19    1
   120    33    34    2
   121    33    32    1
   122    83    82    1
   123    83    84   ar
   124    98   100   am
   125    98    99    2
   126   100   101    1
   127    88    87    1
   128    39    40    2
   129    32    35    1
   130    82    79    1
   131    14    13    1
   132   102   101    1
   133   102   104   am
   134   123   122    1
   135     7     6    2
   136    19    18    1
   137    42    41    1
   138    42    43    1
   139   122   121    1
   140   108   105    1
   141    87    90    1
   142    87    86    1
   143    18    11   am
   144    81    80    2
   145    90    91    1
   146   104   105    1
   147   105   106    1
   148    53    52   ar
   149    53    55   ar
   150    47    43   am
   151    47    48    1
   152     8     6   am
   153    43    44    2
   154     6     5    1
   155    79    80    1
   156    79    78    1
   157    13    10    1
   158    35    36    1
   159    51    48    1
   160    51    52    1
   161    78    72   am
   162    48    49    1
   163    11    10    1
   164    11    12    2
   165    52    54   ar
   166    55    56   ar
   167    10     9    1
   168     9     3   am
   169    36    91    1
   170    64    63    2
   171   116   106   am
   172   116   117    1
   173   106   107    2
   174   121   120    1
   175     5     2    1
   176    72    71    1
   177    72    73    2
   178    77    75   am
   179     2     3    1
   180     2     1    1
   181   130   129    2
   182     3     4    2
   183    71    74    1
   184    71    70    1
   185    54    56   ar
   186    54    57   ar
   187    56    58   ar
   188    49    50    2
   189   120   117    1
   190    75    74    1
   191    75    76    2
   192    63    70   am
   193    63    62    1
   194   117   118    1
   195   129   131   am
   196   129   128    1
   197    58    60   ar
   198    57    59   ar
   199   118   119    2
   200    62    65    1
   201    62    61    1
   202   128   125    1
   203   124   125    1
   204    65    66    1
   205    60    59   ar
   206   125   126    1
   207    66    67    1
   208   126   127    2
   209    67    68   ar
   210    67    69   ar
