@<TRIPOS>MOLECULE
tmp/1ayvA00.pdb
 189 187 0 0 0
SMALL
GASTEIGER

@<TRIPOS>ATOM
      1  N        -28.5740  -11.7870   65.2700 N.3    18  ASN18      -0.1225
      2  CA       -27.9020  -11.3240   64.0650 C.3    18  ASN18       0.1785
      3  C        -26.4070  -11.5810   64.1870 C.2    18  ASN18       0.2597
      4  O        -25.7380  -11.0340   65.0750 O.2    18  ASN18      -0.2718
      5  CB       -28.1730   -9.8440   63.8010 C.3    18  ASN18       0.1169
      6  CG       -27.6580   -9.3880   62.4480 C.2    18  ASN18       0.2627
      7  OD1      -26.7930  -10.0220   61.8470 O.2    18  ASN18      -0.2716
      8  ND2      -28.2040   -8.2950   61.9550 N.am   18  ASN18      -0.0877
      9  N        -25.8870  -12.4170   63.2970 N.am   19  GLN19      -0.1965
     10  CA       -24.4760  -12.7500   63.3070 C.3    19  GLN19       0.1733
     11  C        -23.5860  -11.6000   62.8580 C.2    19  GLN19       0.2617
     12  O        -22.4330  -11.5140   63.2690 O.2    19  GLN19      -0.2715
     13  CB       -24.1990  -14.0150   62.4840 C.3    19  GLN19       0.0408
     14  CG       -24.5600  -13.9390   60.9980 C.3    19  GLN19       0.0908
     15  CD       -24.2770  -15.2440   60.2680 C.2    19  GLN19       0.2608
     16  OE1      -25.1390  -15.7920   59.5960 O.2    19  GLN19      -0.2717
     17  NE2      -23.0630  -15.7430   60.4020 N.am   19  GLN19      -0.0878
     18  N        -24.1190  -10.7060   62.0340 N.am   20  GLY20      -0.1940
     19  CA       -23.3250   -9.5930   61.5460 C.3    20  GLY20       0.2014
     20  C        -22.3340  -10.0520   60.4880 C.2    20  GLY20       0.2639
     21  O        -22.5900  -11.0280   59.7770 O.2    20  GLY20      -0.2714
     22  N        -21.1900   -9.3820   60.3960 N.am   21  GLN21      -0.1963
     23  CA       -20.1850   -9.7310   59.3940 C.3    21  GLN21       0.1733
     24  C        -19.1480  -10.7060   59.9460 C.2    21  GLN21       0.2616
     25  O        -17.9560  -10.4050   60.0170 O.2    21  GLN21      -0.2715
     26  CB       -19.5140   -8.4810   58.8130 C.3    21  GLN21       0.0408
     27  CG       -20.4200   -7.6350   57.9260 C.3    21  GLN21       0.0908
     28  CD       -20.7930   -8.3310   56.6220 C.2    21  GLN21       0.2608
     29  OE1      -20.0190   -9.1170   56.0740 O.2    21  GLN21      -0.2717
     30  NE2      -21.9740   -8.0220   56.1060 N.am   21  GLN21      -0.0878
     31  N        -19.6250  -11.8800   60.3410 N.am   22  CYS22      -0.1954
     32  CA       -18.7930  -12.9400   60.8900 C.3    22  CYS22       0.1843
     33  C        -19.4880  -14.2440   60.5330 C.2    22  CYS22       0.2626
     34  O        -20.7110  -14.3440   60.6240 O.2    22  CYS22      -0.2714
     35  CB       -18.6130  -12.7770   62.4110 C.3    22  CYS22       0.0997
     36  SG       -18.0280  -14.2420   63.3310 S.3    22  CYS22      -0.0797
     37  N        -18.7280  -15.1930   60.0040 N.am   23  GLY23      -0.1954
     38  CA       -19.2900  -16.4830   59.6600 C.3    23  GLY23       0.1869
     39  C        -19.5340  -17.3490   60.8910 C.2    23  GLY23       0.2309
     40  O        -19.0400  -18.4780   60.9780 O.2    23  GLY23      -0.2863
     41  N        -22.5010  -18.5810   61.7420 N.3    25  CYS25      -0.1221
     42  CA       -23.7640  -19.2790   61.5160 C.3    25  CYS25       0.1808
     43  C        -23.8570  -20.5780   62.3160 C.2    25  CYS25       0.2601
     44  O        -24.8350  -20.8200   63.0150 O.2    25  CYS25      -0.2717
     45  CB       -23.9830  -19.5120   60.0140 C.3    25  CYS25       0.0970
     46  SG       -22.5720  -20.3050   59.1520 S.3    25  CYS25      -0.0800
     47  N        -22.8030  -21.3820   62.2460 N.am   26  TRP26      -0.1976
     48  CA       -22.7270  -22.6480   62.9680 C.3    26  TRP26       0.1640
     49  C        -22.9500  -22.4950   64.4880 C.2    26  TRP26       0.2290
     50  O        -23.6510  -23.2980   65.1020 O.2    26  TRP26      -0.2864
     51  CB       -21.3880  -23.3310   62.6730 C.3    26  TRP26       0.0576
     52  CG       -20.1890  -22.4560   62.9800 C.ar   26  TRP26       0.0006
     53  CD1      -19.6700  -21.4820   62.1870 C.ar   26  TRP26       0.0946
     54  CD2      -19.4060  -22.4520   64.1860 C.ar   26  TRP26       0.0152
     55  NE1      -18.6240  -20.8630   62.8210 N.ar   26  TRP26      -0.2442
     56  CE2      -18.4390  -21.4380   64.0510 C.ar   26  TRP26       0.0810
     57  CE3      -19.4330  -23.2060   65.3710 C.ar   26  TRP26       0.0012
     58  CZ2      -17.4980  -21.1540   65.0590 C.ar   26  TRP26       0.0191
     59  CZ3      -18.5000  -22.9240   66.3720 C.ar   26  TRP26       0.0001
     60  CH2      -17.5470  -21.9080   66.2070 C.ar   26  TRP26       0.0015
     61  N        -13.2180  -25.6890   64.9210 N.3    60  ASN60      -0.1225
     62  CA       -13.9140  -24.8330   63.9750 C.3    60  ASN60       0.1785
     63  C        -13.0310  -23.6300   63.7180 C.2    60  ASN60       0.2597
     64  O        -12.0090  -23.4560   64.3920 O.2    60  ASN60      -0.2718
     65  CB       -15.2880  -24.4470   64.4880 C.3    60  ASN60       0.1169
     66  CG       -16.2470  -25.6230   64.5100 C.2    60  ASN60       0.2627
     67  OD1      -17.1660  -25.6590   65.3200 O.2    60  ASN60      -0.2716
     68  ND2      -16.0370  -26.5940   63.6180 N.am   60  ASN60      -0.0877
     69  N        -13.3910  -22.8080   62.7380 N.am   61  ASP61      -0.1974
     70  CA       -12.5620  -21.6580   62.3930 C.3    61  ASP61       0.1709
     71  C        -13.1160  -20.3010   62.8630 C.2    61  ASP61       0.2293
     72  O        -12.7540  -19.2560   62.3200 O.2    61  ASP61      -0.2864
     73  CB       -12.2730  -21.6410   60.8760 C.3    61  ASP61       0.1436
     74  CG       -11.9550  -23.0480   60.3010 C.2    61  ASP61       0.3671
     75  OD1      -10.7810  -23.4990   60.3650 O.co2  61  ASP61      -0.2456
     76  OD2      -12.8860  -23.6970   59.7580 O.co2  61  ASP61      -0.2456
     77  N        -14.5710  -17.9670   60.3750 N.3    64  GLY64      -0.1210
     78  CA       -14.2740  -18.5650   59.0850 C.3    64  GLY64       0.1956
     79  C        -15.0100  -19.8790   58.8380 C.2    64  GLY64       0.2612
     80  O        -14.5870  -20.6850   58.0080 O.2    64  GLY64      -0.2717
     81  N        -16.0870  -20.1160   59.5850 N.am   65  GLY65      -0.1942
     82  CA       -16.8570  -21.3350   59.4200 C.3    65  GLY65       0.2014
     83  C        -16.6620  -22.3940   60.4910 C.2    65  GLY65       0.2639
     84  O        -15.7680  -22.3020   61.3390 O.2    65  GLY65      -0.2714
     85  N        -17.5240  -23.4040   60.4590 N.am   66  GLY66      -0.1939
     86  CA       -17.4420  -24.4860   61.4170 C.3    66  GLY66       0.2014
     87  C        -18.6120  -25.4410   61.3170 C.2    66  GLY66       0.2639
     88  O        -19.4930  -25.2720   60.4840 O.2    66  GLY66      -0.2714
     89  N        -18.6210  -26.4440   62.1840 N.am   67  TYR67      -0.1959
     90  CA       -19.6780  -27.4440   62.2110 C.3    67  TYR67       0.1771
     91  C        -20.3550  -27.4770   63.5640 C.2    67  TYR67       0.2619
     92  O        -19.7100  -27.3050   64.5860 O.2    67  TYR67      -0.2715
     93  CB       -19.1400  -28.8330   61.8650 C.3    67  TYR67       0.0574
     94  CG       -18.6850  -28.9490   60.4360 C.ar   67  TYR67      -0.0198
     95  CD1      -19.5760  -29.3250   59.4390 C.ar   67  TYR67      -0.0009
     96  CD2      -17.3720  -28.6390   60.0730 C.ar   67  TYR67      -0.0009
     97  CE1      -19.1830  -29.3850   58.1130 C.ar   67  TYR67       0.0417
     98  CE2      -16.9630  -28.6970   58.7460 C.ar   67  TYR67       0.0417
     99  CZ       -17.8750  -29.0690   57.7660 C.ar   67  TYR67       0.1957
    100  OH       -17.4960  -29.1020   56.4450 O.3    67  TYR67      -0.2866
    101  N        -21.6480  -27.7660   63.5590 N.am   68  MET68      -0.1977
    102  CA       -22.4380  -27.8490   64.7790 C.3    68  MET68       0.1605
    103  C        -21.9090  -28.9790   65.6760 C.2    68  MET68       0.2287
    104  O        -21.6750  -28.7750   66.8670 O.2    68  MET68      -0.2864
    105  CB       -23.9320  -28.0310   64.4450 C.3    68  MET68       0.0413
    106  CG       -24.5830  -26.8620   63.6560 C.3    68  MET68       0.0598
    107  SD       -24.0130  -26.5820   61.9320 S.3    68  MET68      -0.1393
    108  CE       -25.2280  -27.4990   61.0070 C.3    68  MET68       0.0692
    109  N        -27.7420  -27.6560   57.8510 N.3   134  ALA134     -0.1245
    110  CA       -26.8810  -26.8960   56.9490 C.3   134  ALA134      0.1562
    111  C        -27.5930  -26.8590   55.5930 C.2   134  ALA134      0.2260
    112  O        -28.1460  -27.8670   55.1450 O.2   134  ALA134     -0.2867
    113  CB       -25.5020  -27.5610   56.8260 C.3   134  ALA134      0.0290
    114  N        -31.6710  -14.7090   49.7610 N.3   143  GLN143     -0.1245
    115  CA       -31.3050  -13.4530   50.3980 C.3   143  GLN143      0.1566
    116  C        -32.5010  -12.5060   50.4310 C.2   143  GLN143      0.2260
    117  O        -32.7630  -11.8480   51.4390 O.2   143  GLN143     -0.2867
    118  CB       -30.1000  -12.8140   49.7000 C.3   143  GLN143      0.0367
    119  CG       -29.6910  -11.4490   50.2780 C.3   143  GLN143      0.0905
    120  CD       -28.3370  -10.9150   49.7690 C.2   143  GLN143      0.2608
    121  OE1      -27.7280  -10.0360   50.4010 O.2   143  GLN143     -0.2717
    122  NE2      -27.8530  -11.4550   48.6440 N.am  143  GLN143     -0.0878
    123  N        -23.3860  -26.7100   50.8100 N.3   160  LEU160     -0.1231
    124  CA       -23.8910  -26.3770   52.1480 C.3   160  LEU160      0.1693
    125  C        -23.0110  -25.2460   52.6970 C.2   160  LEU160      0.2592
    126  O        -21.9190  -25.4810   53.2150 O.2   160  LEU160     -0.2718
    127  CB       -23.8990  -27.6160   53.0630 C.3   160  LEU160      0.0284
    128  CG       -24.5660  -28.9160   52.5760 C.3   160  LEU160      0.0019
    129  CD1      -24.3820  -30.0070   53.5990 C.3   160  LEU160      0.0001
    130  CD2      -26.0410  -28.7160   52.3290 C.3   160  LEU160      0.0001
    131  N        -23.5150  -24.0220   52.6010 N.am  161  ASN161     -0.1960
    132  CA       -22.7640  -22.8340   53.0030 C.3   161  ASN161      0.1819
    133  C        -23.2640  -22.0120   54.1960 C.2   161  ASN161      0.2621
    134  O        -22.5490  -21.1210   54.6860 O.2   161  ASN161     -0.2715
    135  CB       -22.5680  -21.9200   51.7900 C.3   161  ASN161      0.1195
    136  CG       -23.8770  -21.6340   51.0490 C.2   161  ASN161      0.2630
    137  OD1      -24.7590  -20.9470   51.5530 O.2   161  ASN161     -0.2716
    138  ND2      -24.0030  -22.1750   49.8560 N.am  161  ASN161     -0.0877
    139  N        -24.4650  -22.3160   54.6790 N.am  162  HIS162     -0.1959
    140  CA       -25.0480  -21.5730   55.7930 C.3   162  HIS162      0.1787
    141  C        -25.7810  -22.4970   56.7770 C.2   162  HIS162      0.2620
    142  O        -26.6930  -23.2200   56.3880 O.2   162  HIS162     -0.2715
    143  CB       -25.9600  -20.4860   55.2260 C.3   162  HIS162      0.0785
    144  CG       -26.5870  -19.5950   56.2530 C.ar  162  HIS162      0.0821
    145  ND1      -25.8590  -18.9140   57.2060 N.ar  162  HIS162     -0.2267
    146  CD2      -27.8730  -19.2060   56.4200 C.ar  162  HIS162      0.1154
    147  CE1      -26.6650  -18.1400   57.9050 C.ar  162  HIS162      0.1986
    148  NE2      -27.8920  -18.2990   57.4500 N.ar  162  HIS162     -0.2212
    149  N        -25.3150  -22.5490   58.0200 N.am  163  ALA163     -0.1977
    150  CA       -25.9630  -23.3740   59.0480 C.3   163  ALA163      0.1597
    151  C        -27.1290  -22.5680   59.6200 C.2   163  ALA163      0.2287
    152  O        -26.9610  -21.4190   60.0350 O.2   163  ALA163     -0.2864
    153  CB       -24.9810  -23.7430   60.1470 C.3   163  ALA163      0.0319
    154  N        -29.8060  -13.5960   60.5720 N.3   184  TRP184     -0.1241
    155  CA       -29.5030  -12.4070   59.7830 C.3   184  TRP184      0.1605
    156  C        -30.3410  -11.2250   60.2680 C.2   184  TRP184      0.2264
    157  O        -30.5860  -10.2700   59.5280 O.2   184  TRP184     -0.2867
    158  CB       -29.7120  -12.6490   58.2880 C.3   184  TRP184      0.0550
    159  CG       -28.6400  -13.4740   57.6720 C.ar  184  TRP184      0.0003
    160  CD1      -27.4630  -13.8640   58.2510 C.ar  184  TRP184      0.0946
    161  CD2      -28.6630  -14.0640   56.3710 C.ar  184  TRP184      0.0152
    162  NE1      -26.7560  -14.6710   57.3880 N.ar  184  TRP184     -0.2442
    163  CE2      -27.4720  -14.8110   56.2270 C.ar  184  TRP184      0.0810
    164  CE3      -29.5800  -14.0380   55.3110 C.ar  184  TRP184      0.0012
    165  CZ2      -27.1760  -15.5340   55.0640 C.ar  184  TRP184      0.0191
    166  CZ3      -29.2850  -14.7570   54.1570 C.ar  184  TRP184      0.0001
    167  CH2      -28.0910  -15.4940   54.0430 C.ar  184  TRP184      0.0015
    168  N        -34.9370   -9.5980   58.4270 N.3   188  TRP188     -0.1241
    169  CA       -34.6770  -10.3890   57.2480 C.3   188  TRP188      0.1605
    170  C        -35.8160  -11.3890   57.0970 C.2   188  TRP188      0.2264
    171  O        -36.4120  -11.8070   58.0920 O.2   188  TRP188     -0.2867
    172  CB       -33.3240  -11.0980   57.3320 C.3   188  TRP188      0.0550
    173  CG       -33.1150  -11.9990   56.1910 C.ar  188  TRP188      0.0003
    174  CD1      -32.6380  -11.6630   54.9620 C.ar  188  TRP188      0.0946
    175  CD2      -33.4890  -13.3780   56.1160 C.ar  188  TRP188      0.0152
    176  NE1      -32.7070  -12.7400   54.1160 N.ar  188  TRP188     -0.2442
    177  CE2      -33.2230  -13.8100   54.7990 C.ar  188  TRP188      0.0810
    178  CE3      -34.0360  -14.2890   57.0350 C.ar  188  TRP188      0.0012
    179  CZ2      -33.4850  -15.1250   54.3690 C.ar  188  TRP188      0.0191
    180  CZ3      -34.3000  -15.6000   56.6050 C.ar  188  TRP188      0.0001
    181  CH2      -34.0210  -15.9990   55.2850 C.ar  188  TRP188      0.0015
    182  N        -26.9100  -32.4560   56.5200 N.3   209  LEU209     -0.1245
    183  CA       -26.0890  -32.2920   57.7150 C.3   209  LEU209      0.1561
    184  C        -26.8570  -31.9080   58.9880 C.2   209  LEU209      0.2260
    185  O        -26.4160  -31.0380   59.7440 O.2   209  LEU209     -0.2867
    186  CB       -24.9610  -31.2950   57.4390 C.3   209  LEU209      0.0270
    187  CG       -23.7010  -31.4370   58.2950 C.3   209  LEU209      0.0019
    188  CD1      -22.8120  -32.5340   57.7480 C.3   209  LEU209      0.0001
    189  CD2      -22.9540  -30.1200   58.3250 C.3   209  LEU209      0.0001
@<TRIPOS>BOND
     1   122   120   am
     2   118   119    1
     3   118   115    1
     4   114   115    1
     5   120   119    1
     6   120   121    2
     7   138   136   am
     8   115   116    1
     9   116   117    2
    10   123   124    1
    11   136   137    2
    12   136   135    1
    13   135   132    1
    14   124   125    1
    15   124   127    1
    16   130   128    1
    17   128   127    1
    18   128   129    1
    19   131   125   am
    20   131   132    1
    21   125   126    2
    22   132   133    1
    23   167   166   ar
    24   167   165   ar
    25   176   177   ar
    26   176   174   ar
    27   166   164   ar
    28   133   139   am
    29   133   134    2
    30   179   177   ar
    31   179   181   ar
    32   139   140    1
    33   177   175   ar
    34   174   173   ar
    35   165   163   ar
    36   112   111    2
    37   143   140    1
    38   143   144    1
    39   181   180   ar
    40   164   161   ar
    41   111   110    1
    42   140   141    1
    43    29    28    2
    44    30    28   am
    45   175   173   ar
    46   175   178   ar
    47   173   172    1
    48   163   161   ar
    49   163   162   ar
    50   144   146   ar
    51   144   145   ar
    52   161   159   ar
    53   142   141    2
    54   146   148   ar
    55   100    99    1
    56   182   183    1
    57   180   178   ar
    58    28    27    1
    59   141   149   am
    60   113   110    1
    61   110   109    1
    62   170   169    1
    63   170   171    2
    64   145   147   ar
    65   169   172    1
    66   169   168    1
    67   162   160   ar
    68   186   183    1
    69   186   187    1
    70   148   147   ar
    71   159   160   ar
    72   159   158    1
    73   183   184    1
    74   188   187    1
    75    99    97   ar
    76    99    98   ar
    77    27    26    1
    78    80    79    2
    79   149   150    1
    80    97    95   ar
    81   158   155    1
    82   187   189    1
    83    98    96   ar
    84    26    23    1
    85    79    78    1
    86    79    81   am
    87   184   185    2
    88   150   151    1
    89   150   153    1
    90    78    77    1
    91    46    45    1
    92    23    24    1
    93    23    22    1
    94    82    81    1
    95    82    83    1
    96    95    94   ar
    97   157   156    2
    98    16    15    2
    99   151   152    2
   100    38    37    1
   101    38    39    1
   102    76    74   ar
   103    21    20    2
   104   155   156    1
   105   155   154    1
   106    24    25    2
   107    24    31   am
   108    37    33   am
   109    45    42    1
   110    96    94   ar
   111    15    17   am
   112    15    14    1
   113    74    75   ar
   114    74    73    1
   115    31    32    1
   116    22    20   am
   117    94    93    1
   118    85    83   am
   119    85    86    1
   120    88    87    2
   121    20    19    1
   122    83    84    2
   123    33    34    2
   124    33    32    1
   125    73    70    1
   126    32    35    1
   127    39    40    2
   128    14    13    1
   129   108   107    1
   130    87    86    1
   131    87    89   am
   132    42    41    1
   133    42    43    1
   134    19    18    1
   135     7     6    2
   136    93    90    1
   137   107   106    1
   138     8     6   am
   139    18    11   am
   140    89    90    1
   141    53    55   ar
   142    53    52   ar
   143    90    91    1
   144    47    43   am
   145    47    48    1
   146    43    44    2
   147    72    71    2
   148    70    69    1
   149    70    71    1
   150    35    36    1
   151     6     5    1
   152    13    10    1
   153    51    48    1
   154    51    52    1
   155    69    63   am
   156    55    56   ar
   157    11    12    2
   158    11    10    1
   159    48    49    1
   160    52    54   ar
   161     9    10    1
   162     9     3   am
   163   101    91   am
   164   101   102    1
   165    91    92    2
   166    68    66   am
   167   106   105    1
   168    63    62    1
   169    63    64    2
   170     5     2    1
   171    62    65    1
   172    62    61    1
   173    56    54   ar
   174    56    58   ar
   175     2     3    1
   176     2     1    1
   177    54    57   ar
   178     3     4    2
   179   105   102    1
   180    49    50    2
   181    65    66    1
   182    66    67    2
   183   102   103    1
   184    58    60   ar
   185    57    59   ar
   186   103   104    2
   187    60    59   ar
