@<TRIPOS>MOLECULE
tmp/1aywA00.pdb
 185 183 0 0 0
SMALL
GASTEIGER

@<TRIPOS>ATOM
      1  N         -3.2610   40.4690   69.4250 N.3    18  ASN18      -0.1225
      2  CA        -2.4240   40.2820   68.2390 C.3    18  ASN18       0.1785
      3  C         -1.3770   41.3920   68.2080 C.2    18  ASN18       0.2597
      4  O         -1.7310   42.5750   68.1770 O.2    18  ASN18      -0.2718
      5  CB        -3.2970   40.3590   66.9800 C.3    18  ASN18       0.1169
      6  CG        -2.5150   40.1050   65.6890 C.2    18  ASN18       0.2627
      7  OD1       -1.3720   40.5280   65.5380 O.2    18  ASN18      -0.2716
      8  ND2       -3.1440   39.4210   64.7480 N.am   18  ASN18      -0.0877
      9  N         -0.1000   41.0190   68.2210 N.am   19  GLN19      -0.1965
     10  CA         0.9800   42.0020   68.1890 C.3    19  GLN19       0.1733
     11  C          1.0950   42.7730   66.8630 C.2    19  GLN19       0.2617
     12  O          1.6480   43.8730   66.8310 O.2    19  GLN19      -0.2715
     13  CB         2.3280   41.3660   68.5860 C.3    19  GLN19       0.0408
     14  CG         2.7400   40.1360   67.7860 C.3    19  GLN19       0.0908
     15  CD         4.1000   39.5740   68.2010 C.2    19  GLN19       0.2608
     16  OE1        4.1840   38.5360   68.8570 O.2    19  GLN19      -0.2717
     17  NE2        5.1710   40.2480   67.7940 N.am   19  GLN19      -0.0878
     18  N          0.6060   42.1880   65.7730 N.am   20  GLY20      -0.1940
     19  CA         0.6380   42.8630   64.4870 C.3    20  GLY20       0.2014
     20  C          1.9340   42.7060   63.7280 C.2    20  GLY20       0.2639
     21  O          2.4020   41.5990   63.5270 O.2    20  GLY20      -0.2714
     22  N          2.4830   43.8120   63.2450 N.am   21  GLN21      -0.1963
     23  CA         3.7380   43.7740   62.5090 C.3    21  GLN21       0.1733
     24  C          4.8870   44.2030   63.4170 C.2    21  GLN21       0.2616
     25  O          6.0560   44.1490   63.0350 O.2    21  GLN21      -0.2715
     26  CB         3.6710   44.6810   61.2690 C.3    21  GLN21       0.0408
     27  CG         2.8170   44.1500   60.1000 C.3    21  GLN21       0.0908
     28  CD         3.3190   42.8150   59.5430 C.2    21  GLN21       0.2608
     29  OE1        4.4450   42.7070   59.0500 O.2    21  GLN21      -0.2717
     30  NE2        2.4770   41.7940   59.6160 N.am   21  GLN21      -0.0878
     31  N          4.5430   44.6550   64.6170 N.am   22  CYS22      -0.1954
     32  CA         5.5200   45.0890   65.6090 C.3    22  CYS22       0.1843
     33  C          6.0130   43.8530   66.3840 C.2    22  CYS22       0.2626
     34  O          5.2510   42.9050   66.6140 O.2    22  CYS22      -0.2714
     35  CB         4.8480   46.1000   66.5400 C.3    22  CYS22       0.0997
     36  SG         5.7420   46.5770   68.0480 S.3    22  CYS22      -0.0797
     37  N          7.3000   43.8320   66.7250 N.am   23  GLY23      -0.1954
     38  CA         7.8660   42.7050   67.4490 C.3    23  GLY23       0.1869
     39  C          7.8320   42.9260   68.9460 C.2    23  GLY23       0.2309
     40  O          8.8580   42.8700   69.6130 O.2    23  GLY23      -0.2863
     41  N          6.3220   40.9990   71.1450 N.3    25  CYS25      -0.1221
     42  CA         5.9260   39.7540   71.7640 C.3    25  CYS25       0.1808
     43  C          6.3890   39.6830   73.2320 C.2    25  CYS25       0.2601
     44  O          5.7730   38.9930   74.0480 O.2    25  CYS25      -0.2717
     45  CB         6.4290   38.5710   70.9320 C.3    25  CYS25       0.0970
     46  SG         8.2080   38.3980   70.8590 S.3    25  CYS25      -0.0800
     47  N          7.4380   40.4300   73.5800 N.am   26  TRP26      -0.1976
     48  CA         7.9310   40.4610   74.9580 C.3    26  TRP26       0.1640
     49  C          6.9950   41.2800   75.8570 C.2    26  TRP26       0.2290
     50  O          6.7200   40.8940   76.9930 O.2    26  TRP26      -0.2864
     51  CB         9.3590   41.0220   75.0340 C.3    26  TRP26       0.0576
     52  CG         9.5050   42.4150   74.5230 C.ar   26  TRP26       0.0006
     53  CD1        9.7080   42.7840   73.2320 C.ar   26  TRP26       0.0946
     54  CD2        9.3580   43.6280   75.2700 C.ar   26  TRP26       0.0152
     55  NE1        9.6720   44.1490   73.1200 N.ar   26  TRP26      -0.2442
     56  CE2        9.4580   44.6940   74.3570 C.ar   26  TRP26       0.0810
     57  CE3        9.1420   43.9190   76.6220 C.ar   26  TRP26       0.0012
     58  CZ2        9.3470   46.0310   74.7490 C.ar   26  TRP26       0.0191
     59  CZ3        9.0340   45.2510   77.0160 C.ar   26  TRP26       0.0001
     60  CH2        9.1350   46.2900   76.0790 C.ar   26  TRP26       0.0015
     61  N         11.5270   46.2790   68.1490 N.3    64  GLY64      -0.1210
     62  CA        12.6580   45.4930   67.7090 C.3    64  GLY64       0.1956
     63  C         12.8620   44.3010   68.6200 C.2    64  GLY64       0.2612
     64  O         13.5520   43.3520   68.2580 O.2    64  GLY64      -0.2717
     65  N         12.2740   44.3450   69.8100 N.am   65  GLY65      -0.1942
     66  CA        12.4150   43.2370   70.7300 C.3    65  GLY65       0.2014
     67  C         12.8130   43.6660   72.1250 C.2    65  GLY65       0.2639
     68  O         13.0690   44.8490   72.3710 O.2    65  GLY65      -0.2714
     69  N         12.8740   42.7010   73.0390 N.am   66  GLY66      -0.1939
     70  CA        13.2350   42.9990   74.4130 C.3    66  GLY66       0.2014
     71  C         13.0410   41.8120   75.3310 C.2    66  GLY66       0.2639
     72  O         12.5370   40.7790   74.9060 O.2    66  GLY66      -0.2714
     73  N         13.4440   41.9540   76.5870 N.am   67  TYR67      -0.1959
     74  CA        13.3070   40.8730   77.5570 C.3    67  TYR67       0.1771
     75  C         12.2080   41.1830   78.5570 C.2    67  TYR67       0.2619
     76  O         11.9960   42.3390   78.9030 O.2    67  TYR67      -0.2715
     77  CB        14.6100   40.6790   78.3190 C.3    67  TYR67       0.0574
     78  CG        15.7930   40.3080   77.4720 C.ar   67  TYR67      -0.0198
     79  CD1       16.6240   41.2870   76.9480 C.ar   67  TYR67      -0.0009
     80  CD2       16.1230   38.9710   77.2460 C.ar   67  TYR67      -0.0009
     81  CE1       17.7510   40.9460   76.2260 C.ar   67  TYR67       0.0417
     82  CE2       17.2480   38.6220   76.5280 C.ar   67  TYR67       0.0417
     83  CZ        18.0550   39.6150   76.0220 C.ar   67  TYR67       0.1957
     84  OH        19.1740   39.2890   75.2930 O.3    67  TYR67      -0.2866
     85  N         11.5610   40.1410   79.0690 N.am   68  MET68      -0.1977
     86  CA        10.4890   40.3070   80.0470 C.3    68  MET68       0.1605
     87  C         11.0140   40.8690   81.3640 C.2    68  MET68       0.2287
     88  O         10.3780   41.7300   81.9690 O.2    68  MET68      -0.2864
     89  CB         9.7530   38.9860   80.3060 C.3    68  MET68       0.0413
     90  CG         8.9570   38.4210   79.1300 C.3    68  MET68       0.0598
     91  SD         9.9320   37.6600   77.8030 S.3    68  MET68      -0.1393
     92  CE        10.4400   36.1520   78.5580 C.3    68  MET68       0.0692
     93  N         10.1660   32.0420   77.0190 N.3   134  ALA134     -0.1245
     94  CA        10.7460   32.3740   75.7280 C.3   134  ALA134      0.1562
     95  C         11.0200   31.0730   75.0060 C.2   134  ALA134      0.2260
     96  O         11.7470   30.2340   75.5200 O.2   134  ALA134     -0.2867
     97  CB        12.0360   33.1210   75.9300 C.3   134  ALA134      0.0290
     98  N         10.1180   29.7140   67.9660 N.3   137  ALA137     -0.1245
     99  CA         8.9520   29.5710   67.1090 C.3   137  ALA137      0.1562
    100  C          9.3010   29.9040   65.6540 C.2   137  ALA137      0.2260
    101  O          8.5080   30.5180   64.9370 O.2   137  ALA137     -0.2867
    102  CB         7.8340   30.4600   67.6130 C.3   137  ALA137      0.0290
    103  N         16.5930   24.9610   71.3640 N.3   157  SER157     -0.1202
    104  CA        16.5390   25.5790   72.6810 C.3   157  SER157      0.2020
    105  C         17.4450   26.7910   72.8800 C.2   157  SER157      0.2619
    106  O         17.2350   27.5690   73.8100 O.2   157  SER157     -0.2717
    107  CB        16.8670   24.5270   73.7330 C.3   157  SER157      0.2103
    108  OG        15.9970   23.4100   73.6150 O.3   157  SER157     -0.2182
    109  N         18.4680   26.9260   72.0360 N.am  158  ASP158     -0.1959
    110  CA        19.4160   28.0380   72.1070 C.3   158  ASP158      0.1840
    111  C         18.9190   29.2450   71.3300 C.2   158  ASP158      0.2622
    112  O         19.3180   30.3780   71.5930 O.2   158  ASP158     -0.2715
    113  CB        20.7550   27.6280   71.5040 C.3   158  ASP158      0.1450
    114  CG        21.4660   26.5810   72.3130 C.2   158  ASP158      0.3671
    115  OD1       20.8870   25.4920   72.5540 O.co2 158  ASP158     -0.2456
    116  OD2       22.6340   26.8490   72.6790 O.co2 158  ASP158     -0.2456
    117  N         18.0890   28.9960   70.3300 N.am  159  ASN159     -0.1958
    118  CA        17.5610   30.0740   69.5220 C.3   159  ASN159      0.1819
    119  C         16.2040   30.4620   70.0890 C.2   159  ASN159      0.2621
    120  O         15.1830   29.9190   69.6710 O.2   159  ASN159     -0.2715
    121  CB        17.4100   29.5970   68.0790 C.3   159  ASN159      0.1195
    122  CG        17.2250   30.7450   67.0880 C.2   159  ASN159      0.2630
    123  OD1       17.1150   31.9140   67.4700 O.2   159  ASN159     -0.2716
    124  ND2       17.2180   30.4090   65.8010 N.am  159  ASN159     -0.0877
    125  N         16.1970   31.3540   71.0790 N.am  160  LEU160     -0.1963
    126  CA        14.9560   31.8180   71.6890 C.3   160  LEU160      0.1728
    127  C         14.5410   33.1240   71.0030 C.2   160  LEU160      0.2616
    128  O         15.0840   34.1960   71.2830 O.2   160  LEU160     -0.2715
    129  CB        15.1510   32.0530   73.1850 C.3   160  LEU160      0.0311
    130  CG        15.6650   30.9340   74.0980 C.3   160  LEU160      0.0022
    131  CD1       15.7560   31.4770   75.5140 C.3   160  LEU160      0.0001
    132  CD2       14.7550   29.7080   74.0550 C.3   160  LEU160      0.0001
    133  N         13.5300   33.0580   70.1530 N.am  161  ASN161     -0.1958
    134  CA        13.1010   34.2420   69.4150 C.3   161  ASN161      0.1819
    135  C         11.7420   34.8100   69.7730 C.2   161  ASN161      0.2621
    136  O         11.5620   36.0230   69.7780 O.2   161  ASN161     -0.2715
    137  CB        13.1290   33.9250   67.9320 C.3   161  ASN161      0.1195
    138  CG        12.5100   32.5960   67.6380 C.2   161  ASN161      0.2630
    139  OD1       11.2880   32.4660   67.5680 O.2   161  ASN161     -0.2716
    140  ND2       13.3410   31.5700   67.5630 N.am  161  ASN161     -0.0877
    141  N         10.7790   33.9470   70.0540 N.am  162  HIS162     -0.1959
    142  CA         9.4410   34.4000   70.3850 C.3   162  HIS162      0.1787
    143  C          9.1630   34.2480   71.8810 C.2   162  HIS162      0.2620
    144  O          9.4660   33.2050   72.4720 O.2   162  HIS162     -0.2715
    145  CB         8.4230   33.5960   69.5760 C.3   162  HIS162      0.0785
    146  CG         7.0740   34.2330   69.4810 C.ar  162  HIS162      0.0821
    147  ND1        6.8980   35.5970   69.3740 N.ar  162  HIS162     -0.2267
    148  CD2        5.8340   33.6920   69.4440 C.ar  162  HIS162      0.1154
    149  CE1        5.6110   35.8680   69.2690 C.ar  162  HIS162      0.1986
    150  NE2        4.9440   34.7300   69.3090 N.ar  162  HIS162     -0.2212
    151  N          8.6110   35.2990   72.4910 N.am  163  ALA163     -0.1977
    152  CA         8.2780   35.2980   73.9180 C.3   163  ALA163      0.1597
    153  C          6.7890   35.0690   74.0500 C.2   163  ALA163      0.2287
    154  O          6.0000   35.7490   73.3940 O.2   163  ALA163     -0.2864
    155  CB         8.6560   36.6240   74.5460 C.3   163  ALA163      0.0319
    156  N         -0.6880   36.3350   68.5630 N.3   184  TRP184     -0.1241
    157  CA        -0.8910   36.4180   67.1210 C.3   184  TRP184      0.1605
    158  C         -2.3640   36.5040   66.7440 C.2   184  TRP184      0.2264
    159  O         -2.7250   36.3250   65.5830 O.2   184  TRP184     -0.2867
    160  CB        -0.2520   35.2110   66.4250 C.3   184  TRP184      0.0550
    161  CG         1.2410   35.2480   66.3840 C.ar  184  TRP184      0.0003
    162  CD1        2.0360   36.3220   66.6260 C.ar  184  TRP184      0.0946
    163  CD2        2.1150   34.1610   66.0890 C.ar  184  TRP184      0.0152
    164  NE1        3.3500   35.9740   66.5070 N.ar  184  TRP184     -0.2442
    165  CE2        3.4280   34.6480   66.1780 C.ar  184  TRP184      0.0810
    166  CE3        1.9160   32.8170   65.7660 C.ar  184  TRP184      0.0012
    167  CZ2        4.5500   33.8340   65.9550 C.ar  184  TRP184      0.0191
    168  CZ3        3.0300   32.0090   65.5470 C.ar  184  TRP184      0.0001
    169  CH2        4.3290   32.5220   65.6430 C.ar  184  TRP184      0.0015
    170  N         13.9280   27.9620   79.4740 N.3   208  ASN208     -0.1225
    171  CA        15.2590   28.5440   79.3350 C.3   208  ASN208      0.1785
    172  C         15.3640   30.0320   79.6660 C.2   208  ASN208      0.2597
    173  O         16.4630   30.5610   79.8190 O.2   208  ASN208     -0.2718
    174  CB        15.7720   28.3020   77.9110 C.3   208  ASN208      0.1169
    175  CG        17.0310   27.4640   77.8790 C.2   208  ASN208      0.2627
    176  OD1       17.0000   26.2590   78.1360 O.2   208  ASN208     -0.2716
    177  ND2       18.1500   28.0960   77.5600 N.am  208  ASN208     -0.0877
    178  N         14.2320   30.7140   79.7730 N.am  209  LEU209     -0.1980
    179  CA        14.2500   32.1400   80.0600 C.3   209  LEU209      0.1596
    180  C         12.9550   32.5500   80.7520 C.2   209  LEU209      0.2287
    181  O         12.4310   33.6390   80.5100 O.2   209  LEU209     -0.2864
    182  CB        14.4230   32.9060   78.7460 C.3   209  LEU209      0.0297
    183  CG        14.6980   34.4120   78.7310 C.3   209  LEU209      0.0022
    184  CD1       16.0310   34.7190   79.3890 C.3   209  LEU209      0.0001
    185  CD2       14.7180   34.8960   77.3010 C.3   209  LEU209      0.0001
@<TRIPOS>BOND
     1    29    28    2
     2    28    30   am
     3    28    27    1
     4    27    26    1
     5    26    23    1
     6    23    22    1
     7    23    24    1
     8    25    24    2
     9    22    20   am
    10    24    31   am
    11    21    20    2
    12    20    19    1
    13    19    18    1
    14    31    32    1
    15     8     6   am
    16   101   100    2
    17     7     6    2
    18   168   169   ar
    19   168   166   ar
    20   159   158    2
    21    32    33    1
    22    32    35    1
    23   169   167   ar
    24   100    99    1
    25     6     5    1
    26   166   163   ar
    27    18    11   am
    28   124   122   am
    29   167   165   ar
    30   163   165   ar
    31   163   161   ar
    32   165   164   ar
    33   161   160    1
    34   161   162   ar
    35    33    34    2
    36    33    37   am
    37   160   157    1
    38   164   162   ar
    39    35    36    1
    40    37    38    1
    41   158   157    1
    42    12    11    2
    43    11    10    1
    44     5     2    1
    45   122   123    2
    46   122   121    1
    47    99   102    1
    48    99    98    1
    49   157   156    1
    50    38    39    1
    51   140   138   am
    52   139   138    2
    53   138   137    1
    54    62    61    1
    55    62    63    1
    56    14    15    1
    57    14    13    1
    58    17    15   am
    59   137   134    1
    60   121   118    1
    61     4     3    2
    62    10     9    1
    63    10    13    1
    64    15    16    2
    65     3     9   am
    66     3     2    1
    67     2     1    1
    68    64    63    2
    69    63    65   am
    70    39    40    2
    71   149   150   ar
    72   149   147   ar
    73   150   148   ar
    74   147   146   ar
    75   134   135    1
    76   134   133    1
    77   148   146   ar
    78   146   145    1
    79   118   119    1
    80   118   117    1
    81   145   142    1
    82   120   119    2
    83   135   136    2
    84   135   141   am
    85    65    66    1
    86   141   142    1
    87   119   125   am
    88   133   127   am
    89   117   111   am
    90   142   143    1
    91    66    67    1
    92    46    45    1
    93    45    42    1
    94   127   128    2
    95   127   126    1
    96   125   126    1
    97    41    42    1
    98   111   112    2
    99   111   110    1
   100   103   104    1
   101   113   110    1
   102   113   114    1
   103   126   129    1
   104    42    43    1
   105   143   144    2
   106   143   151   am
   107   109   110    1
   108   109   105   am
   109    67    68    2
   110    67    69   am
   111   114   115   ar
   112   114   116   ar
   113   151   152    1
   114   104   105    1
   115   104   107    1
   116   105   106    2
   117    69    70    1
   118    55    53   ar
   119    55    56   ar
   120   129   130    1
   121    43    47   am
   122    43    44    2
   123    53    52   ar
   124   154   153    2
   125    47    48    1
   126   108   107    1
   127   152   153    1
   128   152   155    1
   129   132   130    1
   130   130   131    1
   131    56    58   ar
   132    56    54   ar
   133    70    71    1
   134    52    51    1
   135    52    54   ar
   136    58    60   ar
   137    72    71    2
   138    48    51    1
   139    48    49    1
   140    95    96    2
   141    95    94    1
   142    54    57   ar
   143    84    83    1
   144    71    73   am
   145    94    97    1
   146    94    93    1
   147    49    50    2
   148    83    81   ar
   149    83    82   ar
   150    60    59   ar
   151    81    79   ar
   152    82    80   ar
   153    73    74    1
   154    57    59   ar
   155    79    78   ar
   156    80    78   ar
   157   185   183    1
   158    78    77    1
   159    74    77    1
   160    74    75    1
   161   177   175   am
   162    91    92    1
   163    91    90    1
   164   175   174    1
   165   175   176    2
   166   174   171    1
   167    75    76    2
   168    75    85   am
   169   183   182    1
   170   183   184    1
   171   182   179    1
   172    85    86    1
   173    90    89    1
   174   171   170    1
   175   171   172    1
   176   172   178   am
   177   172   173    2
   178   178   179    1
   179    86    89    1
   180    86    87    1
   181   179   180    1
   182   181   180    2
   183    87    88    2
