@<TRIPOS>MOLECULE
tmp/1ayxA00.pdb
 149 148 0 0 0
SMALL
GASTEIGER

@<TRIPOS>ATOM
      1  N          2.5460   -4.1750    4.6520 N.3    54  ALA54      -0.1245
      2  CA         3.8630   -3.4610    4.7000 C.3    54  ALA54       0.1562
      3  C          4.2470   -2.9030    3.3430 C.2    54  ALA54       0.2260
      4  O          4.9150   -1.8560    3.3160 O.2    54  ALA54      -0.2867
      5  CB         4.9770   -4.3930    5.1820 C.3    54  ALA54       0.0290
      6  N          6.8130   -8.8150    0.7020 N.3    63  TYR63      -0.1241
      7  CA         6.4570   -8.1320    1.9230 C.3    63  TYR63       0.1605
      8  C          4.9780   -7.9730    2.1480 C.2    63  TYR63       0.2264
      9  O          4.4040   -7.1410    2.8680 O.2    63  TYR63      -0.2867
     10  CB         7.0970   -6.7590    1.9890 C.3    63  TYR63       0.0534
     11  CG         8.5080   -6.6370    2.4160 C.ar   63  TYR63      -0.0201
     12  CD1        9.5790   -7.3350    1.8550 C.ar   63  TYR63      -0.0009
     13  CD2        8.8520   -5.7570    3.4440 C.ar   63  TYR63      -0.0009
     14  CE1       10.8980   -7.1610    2.2330 C.ar   63  TYR63       0.0417
     15  CE2       10.1710   -5.6220    3.8470 C.ar   63  TYR63       0.0417
     16  CZ        11.1870   -6.2910    3.2600 C.ar   63  TYR63       0.1957
     17  OH        12.4800   -6.0750    3.6710 O.3    63  TYR63      -0.2866
     18  N          2.5580   -6.6420    9.7060 N.3    67  TRP67      -0.1241
     19  CA         3.4110   -6.8110   10.9210 C.3    67  TRP67       0.1605
     20  C          2.8390   -5.9140   11.9750 C.2    67  TRP67       0.2264
     21  O          2.3970   -4.7580   11.7990 O.2    67  TRP67      -0.2867
     22  CB         4.7950   -6.2110   10.6260 C.3    67  TRP67       0.0550
     23  CG         5.8230   -7.0690    9.9810 C.ar   67  TRP67       0.0003
     24  CD1        6.8350   -7.6730   10.6500 C.ar   67  TRP67       0.0946
     25  CD2        6.0270   -7.4150    8.6090 C.ar   67  TRP67       0.0152
     26  NE1        7.6220   -8.3740    9.8050 N.ar   67  TRP67      -0.2442
     27  CE2        7.1530   -8.2610    8.5250 C.ar   67  TRP67       0.0810
     28  CE3        5.3000   -7.1140    7.4230 C.ar   67  TRP67       0.0012
     29  CZ2        7.6460   -8.7630    7.3230 C.ar   67  TRP67       0.0191
     30  CZ3        5.7920   -7.6400    6.2490 C.ar   67  TRP67       0.0001
     31  CH2        6.9640   -8.4300    6.2050 C.ar   67  TRP67       0.0015
     32  N          4.4830   -4.2800   14.2770 N.3    69  ARG69      -0.1231
     33  CA         5.2470   -3.0020   14.2820 C.3    69  ARG69       0.1694
     34  C          4.8730   -2.0230   13.1780 C.2    69  ARG69       0.2592
     35  O          4.5130   -0.8890   13.5410 O.2    69  ARG69      -0.2718
     36  CB         6.7420   -3.3690   14.2090 C.3    69  ARG69       0.0321
     37  CG         7.6790   -2.1840   13.9150 C.3    69  ARG69       0.0489
     38  CD         9.1650   -2.6070   13.8760 C.3    69  ARG69       0.2205
     39  NE         9.3320   -3.7510   13.0330 N.pl3  69  ARG69      -0.0865
     40  CZ         9.4540   -5.0330   13.4600 C.cat  69  ARG69       0.5346
     41  NH1        9.5660   -5.3540   14.7160 N.pl3  69  ARG69       0.1354
     42  NH2        9.5240   -5.9170   12.5100 N.pl3  69  ARG69       0.1354
     43  N          4.8400   -2.4680   11.9350 N.am   70  ASP70      -0.1974
     44  CA         4.5770   -1.4970   10.8580 C.3    70  ASP70       0.1709
     45  C          3.1310   -1.0200   10.9620 C.2    70  ASP70       0.2293
     46  O          2.9150    0.1760   10.6730 O.2    70  ASP70      -0.2864
     47  CB         4.7210   -2.1460    9.4910 C.3    70  ASP70       0.1436
     48  CG         6.0920   -2.7210    9.2610 C.2    70  ASP70       0.3671
     49  OD1        6.7640   -3.3500   10.1120 O.co2  70  ASP70      -0.2456
     50  OD2        6.6350   -2.4730    8.1290 O.co2  70  ASP70      -0.2456
     51  N         14.0540   -5.1480   15.7410 N.3   208  LEU208     -0.1231
     52  CA        13.1290   -4.5610   14.7430 C.3   208  LEU208      0.1693
     53  C         13.5260   -4.8580   13.3300 C.2   208  LEU208      0.2592
     54  O         12.6600   -4.8710   12.4250 O.2   208  LEU208     -0.2718
     55  CB        12.9970   -3.0480   14.9460 C.3   208  LEU208      0.0284
     56  CG        14.0500   -2.1730   14.2670 C.3   208  LEU208      0.0019
     57  CD1       13.6400   -0.6800   14.3710 C.3   208  LEU208      0.0001
     58  CD2       15.3930   -2.3600   14.9460 C.3   208  LEU208      0.0001
     59  N         14.7700   -5.1780   13.0480 N.am  209  TRP209     -0.1962
     60  CA        15.2370   -5.6020   11.7540 C.3   209  TRP209      0.1771
     61  C         15.0650   -7.0770   11.5020 C.2   209  TRP209      0.2619
     62  O         15.2990   -7.5350   10.3790 O.2   209  TRP209     -0.2715
     63  CB        16.6510   -5.1420   11.4620 C.3   209  TRP209      0.0590
     64  CG        16.9360   -3.6670   11.6470 C.ar  209  TRP209      0.0006
     65  CD1       18.0460   -3.1980   12.2960 C.ar  209  TRP209      0.0946
     66  CD2       16.2390   -2.5100   11.2050 C.ar  209  TRP209      0.0152
     67  NE1       18.0570   -1.8410   12.3060 N.ar  209  TRP209     -0.2442
     68  CE2       16.9480   -1.3770   11.6190 C.ar  209  TRP209      0.0810
     69  CE3       15.0410   -2.3480   10.4960 C.ar  209  TRP209      0.0012
     70  CZ2       16.5690   -0.0550   11.3910 C.ar  209  TRP209      0.0191
     71  CZ3       14.6850   -1.0290   10.2240 C.ar  209  TRP209      0.0001
     72  CH2       15.4140    0.0840   10.6730 C.ar  209  TRP209      0.0015
     73  N         14.6210   -7.8310   12.4820 N.am  210  GLU210     -0.1977
     74  CA        14.1970   -9.2110   12.4130 C.3   210  GLU210      0.1602
     75  C         15.3850  -10.1190   12.2150 C.2   210  GLU210      0.2287
     76  O         15.2280  -11.1930   11.6080 O.2   210  GLU210     -0.2864
     77  CB        13.1540   -9.4270   11.2890 C.3   210  GLU210      0.0415
     78  CG        12.0670   -8.3340   11.2660 C.3   210  GLU210      0.1163
     79  CD        10.8400   -8.7710   10.5020 C.2   210  GLU210      0.3649
     80  OE1        9.9990   -9.4170   11.1080 O.co2 210  GLU210     -0.2457
     81  OE2       10.8230   -8.4220    9.2740 O.co2 210  GLU210     -0.2457
     82  N         20.9460    1.1890    7.8000 N.3   345  ARG345     -0.1245
     83  CA        20.4630    0.5550    9.0570 C.3   345  ARG345      0.1563
     84  C         21.6120    0.4770   10.0300 C.2   345  ARG345      0.2260
     85  O         21.5890    1.0030   11.1350 O.2   345  ARG345     -0.2867
     86  CB        19.8750   -0.8110    8.8510 C.3   345  ARG345      0.0307
     87  CG        18.5960   -0.7660    8.0260 C.3   345  ARG345      0.0489
     88  CD        17.7740   -2.0250    8.0450 C.3   345  ARG345      0.2205
     89  NE        18.5570   -3.1470    7.5080 N.pl3 345  ARG345     -0.0865
     90  CZ        18.0960   -4.4130    7.5690 C.cat 345  ARG345      0.5346
     91  NH1       16.8580   -4.6050    8.0310 N.pl3 345  ARG345      0.1354
     92  NH2       18.9100   -5.3540    7.1280 N.pl3 345  ARG345      0.1354
     93  N         22.1190   -6.8590    3.7610 N.3   351  TYR351     -0.1241
     94  CA        20.8500   -7.0730    3.0660 C.3   351  TYR351      0.1605
     95  C         20.6240   -6.1090    1.9390 C.2   351  TYR351      0.2264
     96  O         20.7080   -4.9010    2.1180 O.2   351  TYR351     -0.2867
     97  CB        19.7250   -6.9320    4.0460 C.3   351  TYR351      0.0534
     98  CG        18.3060   -7.0390    3.5580 C.ar  351  TYR351     -0.0201
     99  CD1       17.9250   -8.0860    2.7230 C.ar  351  TYR351     -0.0009
    100  CD2       17.3420   -6.1100    3.9320 C.ar  351  TYR351     -0.0009
    101  CE1       16.6250   -8.2330    2.2720 C.ar  351  TYR351      0.0417
    102  CE2       16.0320   -6.2680    3.4840 C.ar  351  TYR351      0.0417
    103  CZ        15.6870   -7.3060    2.6790 C.ar  351  TYR351      0.1957
    104  OH        14.3740   -7.4620    2.2540 O.3   351  TYR351     -0.2866
    105  N         18.6190    3.3820    3.3910 N.3   362  TRP362     -0.1241
    106  CA        17.1750    3.1850    3.4460 C.3   362  TRP362      0.1605
    107  C         16.4760    4.4940    3.3940 C.2   362  TRP362      0.2264
    108  O         16.8430    5.4650    4.0950 O.2   362  TRP362     -0.2867
    109  CB        16.7270    2.4500    4.7530 C.3   362  TRP362      0.0550
    110  CG        17.0270    0.9540    4.7010 C.ar  362  TRP362      0.0003
    111  CD1       18.1110    0.3200    4.1980 C.ar  362  TRP362      0.0946
    112  CD2       16.1460   -0.0780    5.1210 C.ar  362  TRP362      0.0152
    113  NE1       17.9770   -1.0370    4.3070 N.ar  362  TRP362     -0.2442
    114  CE2       16.7720   -1.3090    4.8630 C.ar  362  TRP362      0.0810
    115  CE3       14.8920   -0.0520    5.7470 C.ar  362  TRP362      0.0012
    116  CZ2       16.1220   -2.5110    5.1820 C.ar  362  TRP362      0.0191
    117  CZ3       14.2460   -1.2180    6.0890 C.ar  362  TRP362      0.0001
    118  CH2       14.9280   -2.4070    5.7830 C.ar  362  TRP362      0.0015
    119  N         11.7830    0.5460   -0.0170 N.3   456  GLU456     -0.1245
    120  CA        12.5790    0.3520    1.2300 C.3   456  GLU456      0.1567
    121  C         13.9390    0.9400    1.0740 C.2   456  GLU456      0.2260
    122  O         14.4320    1.5870    2.0600 O.2   456  GLU456     -0.2867
    123  CB        12.6850   -1.1630    1.4630 C.3   456  GLU456      0.0388
    124  CG        13.2600   -1.5220    2.8480 C.3   456  GLU456      0.1160
    125  CD        13.3960   -3.0570    2.9920 C.2   456  GLU456      0.3649
    126  OE1       14.2820   -3.6040    2.3420 O.co2 456  GLU456     -0.2457
    127  OE2       12.5340   -3.5430    3.7790 O.co2 456  GLU456     -0.2457
    128  N          6.8010    1.1000    0.3980 N.3   471  LEU471     -0.1245
    129  CA         6.8170    0.6410    1.8020 C.3   471  LEU471      0.1561
    130  C          6.1270    1.6420    2.6870 C.2   471  LEU471      0.2260
    131  O          6.4530    2.8200    2.8040 O.2   471  LEU471     -0.2867
    132  CB         8.2780    0.4560    2.2620 C.3   471  LEU471      0.0270
    133  CG         8.4480   -0.2360    3.5990 C.3   471  LEU471      0.0019
    134  CD1        8.3100   -1.7510    3.4880 C.3   471  LEU471      0.0001
    135  CD2        9.7880    0.0710    4.2360 C.3   471  LEU471      0.0001
    136  N          5.9700    2.0770    5.8760 N.3   473  TRP473     -0.1241
    137  CA         6.8000    2.7570    6.8600 C.3   473  TRP473      0.1605
    138  C          7.6260    3.8680    6.1660 C.2   473  TRP473      0.2264
    139  O          7.7870    4.9220    6.8090 O.2   473  TRP473     -0.2867
    140  CB         7.6750    1.7420    7.5580 C.3   473  TRP473      0.0550
    141  CG         8.3920    2.1460    8.8060 C.ar  473  TRP473      0.0003
    142  CD1        8.3940    3.3950    9.3810 C.ar  473  TRP473      0.0946
    143  CD2        9.2240    1.2910    9.6180 C.ar  473  TRP473      0.0152
    144  NE1        9.1820    3.3600   10.5360 N.ar  473  TRP473     -0.2442
    145  CE2        9.7080    2.1220   10.6540 C.ar  473  TRP473      0.0810
    146  CE3        9.5670   -0.0320    9.4800 C.ar  473  TRP473      0.0012
    147  CZ2       10.5740    1.6170   11.6530 C.ar  473  TRP473      0.0191
    148  CZ3       10.4470   -0.5400   10.4790 C.ar  473  TRP473      0.0001
    149  CH2       10.9000    0.3000   11.4880 C.ar  473  TRP473      0.0015
@<TRIPOS>BOND
     1   119   120    1
     2   128   129    1
     3     6     7    1
     4   121   120    1
     5   121   122    2
     6   120   123    1
     7   123   124    1
     8   129   132    1
     9   129   130    1
    10    12    14   ar
    11    12    11   ar
    12     7    10    1
    13     7     8    1
    14    95    96    2
    15    95    94    1
    16    10    11    1
    17     8     9    2
    18    14    16   ar
    19   104   103    1
    20   132   133    1
    21   101   103   ar
    22   101    99   ar
    23   126   125   ar
    24    11    13   ar
    25   103   102   ar
    26   130   131    2
    27    99    98   ar
    28   124   125    1
    29   125   127   ar
    30    94    93    1
    31    94    97    1
    32    16    17    1
    33    16    15   ar
    34     4     3    2
    35     3     2    1
    36   105   106    1
    37   107   106    1
    38   107   108    2
    39    13    15   ar
    40   106   109    1
    41   102   100   ar
    42   134   133    1
    43    98   100   ar
    44    98    97    1
    45   133   135    1
    46   111   113   ar
    47   111   110   ar
    48   113   114   ar
    49     1     2    1
    50     2     5    1
    51   110   109    1
    52   110   112   ar
    53   114   112   ar
    54   114   116   ar
    55   112   115   ar
    56   116   118   ar
    57   115   117   ar
    58   118   117   ar
    59   136   137    1
    60   138   139    2
    61   138   137    1
    62    31    30   ar
    63    31    29   ar
    64    30    28   ar
    65   137   140    1
    66    92    90    1
    67    29    27   ar
    68    28    25   ar
    69    89    90    2
    70    89    88    1
    71   140   141    1
    72    90    91    1
    73    82    83    1
    74    87    88    1
    75    87    86    1
    76    50    48   ar
    77    27    25   ar
    78    27    26   ar
    79    25    23   ar
    80   141   142   ar
    81   141   143   ar
    82    86    83    1
    83    83    84    1
    84    48    47    1
    85    48    49   ar
    86    81    79   ar
    87   142   144   ar
    88   146   143   ar
    89   146   148   ar
    90    47    44    1
    91   143   145   ar
    92    18    19    1
    93    26    24   ar
    94    23    22    1
    95    23    24   ar
    96    84    85    2
    97    71    69   ar
    98    71    72   ar
    99    62    61    2
   100   148   149   ar
   101    69    66   ar
   102    79    80   ar
   103    79    78    1
   104   144   145   ar
   105    22    19    1
   106   145   147   ar
   107    46    45    2
   108    72    70   ar
   109    44    45    1
   110    44    43    1
   111    19    20    1
   112    66    68   ar
   113    66    64   ar
   114    78    77    1
   115    77    74    1
   116    70    68   ar
   117    63    64    1
   118    63    60    1
   119   149   147   ar
   120    61    60    1
   121    61    73   am
   122    76    75    2
   123    68    67   ar
   124    64    65   ar
   125    60    59    1
   126    21    20    2
   127    43    34   am
   128    75    74    1
   129    65    67   ar
   130    74    73    1
   131    54    53    2
   132    42    40    1
   133    39    40    2
   134    39    38    1
   135    59    53   am
   136    34    35    2
   137    34    33    1
   138    53    52    1
   139    40    41    1
   140    38    37    1
   141    37    36    1
   142    36    33    1
   143    56    57    1
   144    56    55    1
   145    56    58    1
   146    32    33    1
   147    52    55    1
   148    52    51    1
