@<TRIPOS>MOLECULE
tmp/1az1A01.pdb
 148 150 0 0 0
SMALL
GASTEIGER

@<TRIPOS>ATOM
      1  N         16.2560   24.0640   71.0770 N.3    19  TRP19      -0.1241
      2  CA        16.7720   23.3580   69.9120 C.3    19  TRP19       0.1605
      3  C         17.8880   22.4260   70.3740 C.2    19  TRP19       0.2264
      4  O         18.7780   22.8390   71.1230 O.2    19  TRP19      -0.2867
      5  CB        17.2820   24.3400   68.8350 C.3    19  TRP19       0.0550
      6  CG        17.9350   23.6640   67.6380 C.ar   19  TRP19       0.0003
      7  CD1       17.5360   22.5090   67.0300 C.ar   19  TRP19       0.0946
      8  CD2       19.2000   24.0080   67.0450 C.ar   19  TRP19       0.0152
      9  NE1       18.4940   22.0910   66.1350 N.ar   19  TRP19      -0.2442
     10  CE2       19.5200   22.9870   66.1320 C.ar   19  TRP19       0.0810
     11  CE3       20.0840   25.0760   67.2090 C.ar   19  TRP19       0.0012
     12  CZ2       20.7110   22.9990   65.4030 C.ar   19  TRP19       0.0191
     13  CZ3       21.2660   25.0890   66.4620 C.ar   19  TRP19       0.0001
     14  CH2       21.5670   24.0520   65.5830 C.ar   19  TRP19       0.0015
     15  N          9.6120   22.5670   64.4970 N.3    46  VAL46      -0.1231
     16  CA        10.7200   21.8700   63.8380 C.3    46  VAL46       0.1692
     17  C         11.7380   21.2310   64.8010 C.2    46  VAL46       0.2592
     18  O         12.4570   20.3090   64.4220 O.2    46  VAL46      -0.2718
     19  CB        11.4410   22.8380   62.8170 C.3    46  VAL46       0.0266
     20  CG1       12.3960   23.7780   63.5150 C.3    46  VAL46       0.0020
     21  CG2       12.1510   22.0550   61.7520 C.3    46  VAL46       0.0020
     22  N         11.7020   21.6140   66.0760 N.am   47  TYR47      -0.1976
     23  CA        12.6060   21.0150   67.0590 C.3    47  TYR47       0.1639
     24  C         12.1130   19.6340   67.5130 C.2    47  TYR47       0.2290
     25  O         12.8280   18.9230   68.2150 O.2    47  TYR47      -0.2864
     26  CB        12.7850   21.9290   68.2800 C.3    47  TYR47       0.0560
     27  CG        13.3420   23.3060   67.9870 C.ar   47  TYR47      -0.0198
     28  CD1       13.9250   23.6000   66.7500 C.ar   47  TYR47      -0.0009
     29  CD2       13.2870   24.3180   68.9460 C.ar   47  TYR47      -0.0009
     30  CE1       14.4360   24.8770   66.4750 C.ar   47  TYR47       0.0417
     31  CE2       13.7990   25.5970   68.6840 C.ar   47  TYR47       0.0417
     32  CZ        14.3680   25.8660   67.4440 C.ar   47  TYR47       0.1957
     33  OH        14.8470   27.1270   67.1560 O.3    47  TYR47      -0.2866
     34  N          7.4320   29.1830   66.4810 N.3    76  LYS76      -0.1245
     35  CA         7.7930   29.6620   65.1510 C.3    76  LYS76       0.1561
     36  C          7.1210   28.8340   64.0750 C.2    76  LYS76       0.2260
     37  O          7.0610   27.5930   64.1670 O.2    76  LYS76      -0.2867
     38  CB         9.3250   29.6230   64.9700 C.3    76  LYS76       0.0271
     39  CG        10.1220   30.1320   66.1970 C.3    76  LYS76       0.0035
     40  CD        11.6320   30.1480   65.9550 C.3    76  LYS76       0.0206
     41  CE        12.4000   30.4630   67.2400 C.3    76  LYS76       0.1093
     42  NZ        12.6410   29.2140   67.9990 N.3    76  LYS76      -0.1314
     43  N          7.0870   27.0220   60.6620 N.3    78  TRP78      -0.1241
     44  CA         8.1200   26.4170   59.8160 C.3    78  TRP78       0.1605
     45  C          7.8530   26.7360   58.3430 C.2    78  TRP78       0.2264
     46  O          6.7620   27.1720   57.9860 O.2    78  TRP78      -0.2867
     47  CB         8.1930   24.8950   60.0280 C.3    78  TRP78       0.0550
     48  CG         9.3430   24.2580   59.2780 C.ar   78  TRP78       0.0003
     49  CD1        9.2500   23.3390   58.2600 C.ar   78  TRP78       0.0946
     50  CD2       10.7180   24.6690   59.3200 C.ar   78  TRP78       0.0152
     51  NE1       10.4730   23.1870   57.6500 N.ar   78  TRP78      -0.2442
     52  CE2       11.3920   23.9880   58.2780 C.ar   78  TRP78       0.0810
     53  CE3       11.4450   25.5570   60.1340 C.ar   78  TRP78       0.0012
     54  CZ2       12.7630   24.1630   58.0310 C.ar   78  TRP78       0.0191
     55  CZ3       12.8100   25.7270   59.8860 C.ar   78  TRP78       0.0001
     56  CH2       13.4520   25.0290   58.8460 C.ar   78  TRP78       0.0015
     57  N          9.7870   31.6630   61.1400 N.3   109  HIS109     -0.1226
     58  CA        11.0580   31.0360   61.5200 C.3   109  HIS109      0.1752
     59  C         12.2100   31.4440   60.5820 C.2   109  HIS109      0.2596
     60  O         13.3110   31.7530   61.0380 O.2   109  HIS109     -0.2718
     61  CB        10.8840   29.5080   61.5190 C.3   109  HIS109      0.0759
     62  CG        11.8700   28.7710   62.3680 C.ar  109  HIS109      0.0818
     63  ND1       11.6130   27.5240   62.8990 N.ar  109  HIS109     -0.2268
     64  CD2       13.1390   29.0800   62.7460 C.ar  109  HIS109      0.1154
     65  CE1       12.6710   27.0990   63.5680 C.ar  109  HIS109      0.1986
     66  NE2       13.6070   28.0230   63.4890 N.ar  109  HIS109     -0.2212
     67  N         11.9610   31.3480   59.2770 N.am  110  TRP110     -0.1976
     68  CA        12.9090   31.7540   58.2370 C.3   110  TRP110      0.1640
     69  C         12.0780   32.4130   57.1300 C.2   110  TRP110      0.2290
     70  O         10.9070   32.0970   56.9640 O.2   110  TRP110     -0.2864
     71  CB        13.6520   30.5210   57.6850 C.3   110  TRP110      0.0576
     72  CG        14.6790   29.9230   58.6440 C.ar  110  TRP110      0.0006
     73  CD1       14.4510   28.9880   59.6170 C.ar  110  TRP110      0.0946
     74  CD2       16.0660   30.2740   58.7500 C.ar  110  TRP110      0.0152
     75  NE1       15.6020   28.7440   60.3320 N.ar  110  TRP110     -0.2442
     76  CE2       16.6100   29.5250   59.8260 C.ar  110  TRP110      0.0810
     77  CE3       16.9110   31.1380   58.0290 C.ar  110  TRP110      0.0012
     78  CZ2       17.9590   29.6140   60.2000 C.ar  110  TRP110      0.0191
     79  CZ3       18.2600   31.2210   58.3960 C.ar  110  TRP110      0.0001
     80  CH2       18.7690   30.4590   59.4760 C.ar  110  TRP110      0.0015
     81  N         14.2480   37.7870   65.6850 N.3   182  GLN182     -0.1245
     82  CA        15.2040   36.8930   66.3340 C.3   182  GLN182      0.1566
     83  C         16.3090   36.5020   65.3590 C.2   182  GLN182      0.2260
     84  O         16.0480   35.9110   64.3060 O.2   182  GLN182     -0.2867
     85  CB        14.4940   35.6310   66.8590 C.3   182  GLN182      0.0367
     86  CG        15.4200   34.6720   67.5950 C.3   182  GLN182      0.0905
     87  CD        14.7110   33.4360   68.0900 C.2   182  GLN182      0.2608
     88  OE1       13.6760   33.5120   68.7730 O.2   182  GLN182     -0.2717
     89  NE2       15.2760   32.2930   67.7860 N.am  182  GLN182     -0.0878
     90  N         20.0420   34.6710   69.3390 N.3   208  TYR208     -0.1241
     91  CA        20.1320   33.2140   69.4910 C.3   208  TYR208      0.1605
     92  C         21.5550   32.6900   69.2550 C.2   208  TYR208      0.2264
     93  O         22.4170   33.4190   68.7650 O.2   208  TYR208     -0.2867
     94  CB        19.1100   32.5050   68.5810 C.3   208  TYR208      0.0534
     95  CG        19.4240   32.4970   67.1010 C.ar  208  TYR208     -0.0201
     96  CD1       20.4820   31.7380   66.6030 C.ar  208  TYR208     -0.0009
     97  CD2       18.5350   33.0540   66.1890 C.ar  208  TYR208     -0.0009
     98  CE1       20.6380   31.5180   65.2300 C.ar  208  TYR208      0.0417
     99  CE2       18.6670   32.8340   64.8080 C.ar  208  TYR208      0.0417
    100  CZ        19.7170   32.0570   64.3390 C.ar  208  TYR208      0.1957
    101  OH        19.8160   31.7580   62.9960 O.3   208  TYR208     -0.2866
    102  N         25.9520   22.1960   68.0470 N.3   216  ARG216     -0.1231
    103  CA        25.4810   22.1450   66.6570 C.3   216  ARG216      0.1679
    104  C         26.0030   20.9200   65.8680 C.2   216  ARG216      0.2434
    105  O         27.1220   20.4590   66.0890 O.2   216  ARG216     -0.2733
    106  CB        25.8800   23.4330   65.9250 C.3   216  ARG216      0.0321
    107  CG        27.3050   23.4380   65.4230 C.3   216  ARG216      0.0489
    108  CD        27.6720   24.7300   64.7300 C.3   216  ARG216      0.2205
    109  NE        28.4900   25.5400   65.6170 N.pl3 216  ARG216     -0.0865
    110  CZ        29.7220   25.2230   65.9950 C.cat 216  ARG216      0.5346
    111  NH1       30.5850   24.7630   65.1060 N.pl3 216  ARG216      0.1354
    112  NH2       30.1700   25.6540   67.1640 N.pl3 216  ARG216      0.1354
    113  N         25.2400   20.4720   64.8520 N.am  217  PRO217     -0.2718
    114  CA        25.4720   19.2330   64.1050 C.3   217  PRO217      0.1535
    115  C         26.8790   18.9410   63.5630 C.2   217  PRO217      0.2598
    116  O         27.2830   17.7710   63.5170 O.2   217  PRO217     -0.2715
    117  CB        24.4370   19.3050   62.9860 C.3   217  PRO217      0.0310
    118  CG        23.2860   19.9900   63.6360 C.3   217  PRO217      0.0237
    119  CD        23.9330   21.0630   64.4930 C.3   217  PRO217      0.0939
    120  N         27.6200   19.9520   63.1150 N.am  218  TYR218     -0.1974
    121  CA        28.9420   19.6500   62.5540 C.3   218  TYR218      0.1639
    122  C         30.1040   20.4990   63.0490 C.2   218  TYR218      0.2290
    123  O         30.1650   21.7000   62.7860 O.2   218  TYR218     -0.2864
    124  CB        28.8770   19.6720   61.0270 C.3   218  TYR218      0.0560
    125  CG        28.0330   18.5470   60.4560 C.ar  218  TYR218     -0.0198
    126  CD1       28.5090   17.2260   60.4390 C.ar  218  TYR218     -0.0009
    127  CD2       26.7380   18.7910   59.9820 C.ar  218  TYR218     -0.0009
    128  CE1       27.7090   16.1730   59.9630 C.ar  218  TYR218      0.0417
    129  CE2       25.9310   17.7500   59.5080 C.ar  218  TYR218      0.0417
    130  CZ        26.4220   16.4470   59.4970 C.ar  218  TYR218      0.1957
    131  OH        25.6460   15.4270   58.9770 O.3   218  TYR218     -0.2866
    132  N         26.9260   30.3610   62.7480 N.3   296  VAL296     -0.1231
    133  CA        26.4170   29.0060   62.9410 C.3   296  VAL296      0.1692
    134  C         25.3590   28.6130   61.8880 C.2   296  VAL296      0.2592
    135  O         25.4000   27.5160   61.3090 O.2   296  VAL296     -0.2718
    136  CB        25.7830   28.8770   64.3620 C.3   296  VAL296      0.0266
    137  CG1       25.2340   27.4850   64.5840 C.3   296  VAL296      0.0020
    138  CG2       26.8160   29.2150   65.4290 C.3   296  VAL296      0.0020
    139  N         24.3620   29.4720   61.7120 N.am  297  ALA297     -0.1966
    140  CA        23.1890   29.1260   60.9380 C.3   297  ALA297      0.1728
    141  C         23.1750   29.9410   59.6520 C.2   297  ALA297      0.2616
    142  O         22.8030   31.0950   59.6640 O.2   297  ALA297     -0.2715
    143  CB        21.9280   29.4010   61.7680 C.3   297  ALA297      0.0334
    144  N         23.6680   29.3700   58.5580 N.am  298  ALA298     -0.1977
    145  CA        23.8000   30.1260   57.3130 C.3   298  ALA298      0.1597
    146  C         22.8300   29.6680   56.2420 C.2   298  ALA298      0.2287
    147  O         22.7940   30.2470   55.1560 O.2   298  ALA298     -0.2864
    148  CB        25.2120   30.0330   56.7920 C.3   298  ALA298      0.0319
@<TRIPOS>BOND
     1   147   146    2
     2   146   145    1
     3   148   145    1
     4    70    69    2
     5    69    68    1
     6   145   144    1
     7    51    49   ar
     8    51    52   ar
     9    71    68    1
    10    71    72    1
    11    46    45    2
    12    77    79   ar
    13    77    74   ar
    14    54    52   ar
    15    54    56   ar
    16    68    67    1
    17    49    48   ar
    18    52    50   ar
    19    45    44    1
    20    79    80   ar
    21   144   141   am
    22    72    74   ar
    23    72    73   ar
    24    74    76   ar
    25    56    55   ar
    26   131   130    1
    27    67    59   am
    28    48    50   ar
    29    48    47    1
    30    50    53   ar
    31    80    78   ar
    32   130   129   ar
    33   130   128   ar
    34   129   127   ar
    35    73    75   ar
    36   141   142    2
    37   141   140    1
    38    44    47    1
    39    44    43    1
    40    76    78   ar
    41    76    75   ar
    42    55    53   ar
    43   128   126   ar
    44   127   125   ar
    45   126   125   ar
    46   125   124    1
    47    59    60    2
    48    59    58    1
    49   140   139    1
    50   140   143    1
    51   124   121    1
    52    57    58    1
    53   135   134    2
    54    61    58    1
    55    61    62    1
    56   139   134   am
    57    21    19    1
    58   134   133    1
    59    62    64   ar
    60    62    63   ar
    61   121   122    1
    62   121   120    1
    63    64    66   ar
    64   132   133    1
    65   123   122    2
    66    19    20    1
    67    19    16    1
    68    63    65   ar
    69   133   136    1
    70   117   118    1
    71   117   114    1
    72   101   100    1
    73   120   115   am
    74    66    65   ar
    75   116   115    2
    76   115   114    1
    77   118   119    1
    78    16    15    1
    79    16    17    1
    80    36    37    2
    81    36    35    1
    82   114   113    1
    83    84    83    2
    84   100    99   ar
    85   100    98   ar
    86   136   137    1
    87   136   138    1
    88    18    17    2
    89   119   113    1
    90   108   107    1
    91   108   109    1
    92    17    22   am
    93    99    97   ar
    94   113   104   am
    95    38    35    1
    96    38    39    1
    97   111   110    1
    98    35    34    1
    99    98    96   ar
   100    83    82    1
   101    12    14   ar
   102    12    10   ar
   103   107   106    1
   104    14    13   ar
   105   109   110    2
   106    81    82    1
   107   104   105    2
   108   104   103    1
   109   106   103    1
   110    40    39    1
   111    40    41    1
   112   110   112    1
   113    22    23    1
   114    10     9   ar
   115    10     8   ar
   116     9     7   ar
   117    97    95   ar
   118    82    85    1
   119    13    11   ar
   120    30    28   ar
   121    30    32   ar
   122    96    95   ar
   123   103   102    1
   124    28    27   ar
   125    85    86    1
   126     7     6   ar
   127     8    11   ar
   128     8     6   ar
   129    23    24    1
   130    23    26    1
   131    95    94    1
   132    33    32    1
   133    41    42    1
   134    32    31   ar
   135    24    25    2
   136    86    87    1
   137     6     5    1
   138    89    87   am
   139    27    26    1
   140    27    29   ar
   141    87    88    2
   142    94    91    1
   143    31    29   ar
   144    93    92    2
   145     5     2    1
   146    92    91    1
   147    90    91    1
   148     2     3    1
   149     2     1    1
   150     3     4    2
