@<TRIPOS>MOLECULE
tmp/1az1A02.pdb
 106 107 0 0 0
SMALL
GASTEIGER

@<TRIPOS>ATOM
      1  N          9.6120   22.5670   64.4970 N.3    46  VAL46      -0.1245
      2  CA        10.7200   21.8700   63.8380 C.3    46  VAL46       0.1561
      3  C         11.7380   21.2310   64.8010 C.2    46  VAL46       0.2260
      4  O         12.4570   20.3090   64.4220 O.2    46  VAL46      -0.2867
      5  CB        11.4410   22.8380   62.8170 C.3    46  VAL46       0.0252
      6  CG1       12.3960   23.7780   63.5150 C.3    46  VAL46       0.0019
      7  CG2       12.1510   22.0550   61.7520 C.3    46  VAL46       0.0019
      8  N          7.0870   27.0220   60.6620 N.3    78  TRP78      -0.1241
      9  CA         8.1200   26.4170   59.8160 C.3    78  TRP78       0.1605
     10  C          7.8530   26.7360   58.3430 C.2    78  TRP78       0.2264
     11  O          6.7620   27.1720   57.9860 O.2    78  TRP78      -0.2867
     12  CB         8.1930   24.8950   60.0280 C.3    78  TRP78       0.0550
     13  CG         9.3430   24.2580   59.2780 C.ar   78  TRP78       0.0003
     14  CD1        9.2500   23.3390   58.2600 C.ar   78  TRP78       0.0946
     15  CD2       10.7180   24.6690   59.3200 C.ar   78  TRP78       0.0152
     16  NE1       10.4730   23.1870   57.6500 N.ar   78  TRP78      -0.2442
     17  CE2       11.3920   23.9880   58.2780 C.ar   78  TRP78       0.0810
     18  CE3       11.4450   25.5570   60.1340 C.ar   78  TRP78       0.0012
     19  CZ2       12.7630   24.1630   58.0310 C.ar   78  TRP78       0.0191
     20  CZ3       12.8100   25.7270   59.8860 C.ar   78  TRP78       0.0001
     21  CH2       13.4520   25.0290   58.8460 C.ar   78  TRP78       0.0015
     22  N          9.7870   31.6630   61.1400 N.3   109  HIS109     -0.1226
     23  CA        11.0580   31.0360   61.5200 C.3   109  HIS109      0.1752
     24  C         12.2100   31.4440   60.5820 C.2   109  HIS109      0.2596
     25  O         13.3110   31.7530   61.0380 O.2   109  HIS109     -0.2718
     26  CB        10.8840   29.5080   61.5190 C.3   109  HIS109      0.0759
     27  CG        11.8700   28.7710   62.3680 C.ar  109  HIS109      0.0818
     28  ND1       11.6130   27.5240   62.8990 N.ar  109  HIS109     -0.2268
     29  CD2       13.1390   29.0800   62.7460 C.ar  109  HIS109      0.1154
     30  CE1       12.6710   27.0990   63.5680 C.ar  109  HIS109      0.1986
     31  NE2       13.6070   28.0230   63.4890 N.ar  109  HIS109     -0.2212
     32  N         11.9610   31.3480   59.2770 N.am  110  TRP110     -0.1976
     33  CA        12.9090   31.7540   58.2370 C.3   110  TRP110      0.1640
     34  C         12.0780   32.4130   57.1300 C.2   110  TRP110      0.2290
     35  O         10.9070   32.0970   56.9640 O.2   110  TRP110     -0.2864
     36  CB        13.6520   30.5210   57.6850 C.3   110  TRP110      0.0576
     37  CG        14.6790   29.9230   58.6440 C.ar  110  TRP110      0.0006
     38  CD1       14.4510   28.9880   59.6170 C.ar  110  TRP110      0.0946
     39  CD2       16.0660   30.2740   58.7500 C.ar  110  TRP110      0.0152
     40  NE1       15.6020   28.7440   60.3320 N.ar  110  TRP110     -0.2442
     41  CE2       16.6100   29.5250   59.8260 C.ar  110  TRP110      0.0810
     42  CE3       16.9110   31.1380   58.0290 C.ar  110  TRP110      0.0012
     43  CZ2       17.9590   29.6140   60.2000 C.ar  110  TRP110      0.0191
     44  CZ3       18.2600   31.2210   58.3960 C.ar  110  TRP110      0.0001
     45  CH2       18.7690   30.4590   59.4760 C.ar  110  TRP110      0.0015
     46  N         12.2320   19.5390   54.9690 N.3   121  PHE121     -0.1241
     47  CA        13.1160   20.0150   53.9030 C.3   121  PHE121      0.1605
     48  C         12.8680   19.2860   52.5830 C.2   121  PHE121      0.2264
     49  O         13.6350   18.4070   52.2030 O.2   121  PHE121     -0.2867
     50  CB        14.5790   19.8370   54.3120 C.3   121  PHE121      0.0534
     51  CG        15.2650   21.1090   54.6490 C.ar  121  PHE121     -0.0203
     52  CD1       15.1870   21.6330   55.9280 C.ar  121  PHE121     -0.0042
     53  CD2       15.9690   21.8120   53.6780 C.ar  121  PHE121     -0.0042
     54  CE1       15.7950   22.8540   56.2310 C.ar  121  PHE121     -0.0003
     55  CE2       16.5760   23.0270   53.9760 C.ar  121  PHE121     -0.0003
     56  CZ        16.4850   23.5440   55.2510 C.ar  121  PHE121     -0.0000
     57  N         28.8970   32.7840   61.1590 N.3   295  ARG295     -0.1231
     58  CA        27.5470   32.2970   61.4420 C.3   295  ARG295      0.1694
     59  C         27.4790   30.7810   61.6190 C.2   295  ARG295      0.2592
     60  O         27.9390   30.0220   60.7720 O.2   295  ARG295     -0.2718
     61  CB        26.5670   32.7060   60.3320 C.3   295  ARG295      0.0321
     62  CG        26.9390   33.9410   59.5640 C.3   295  ARG295      0.0489
     63  CD        26.0120   34.1140   58.3800 C.3   295  ARG295      0.2205
     64  NE        24.7030   34.5270   58.8330 N.pl3 295  ARG295     -0.0865
     65  CZ        24.3410   35.7940   59.0200 C.cat 295  ARG295      0.5346
     66  NH1       24.8010   36.7510   58.2310 N.pl3 295  ARG295      0.1354
     67  NH2       23.3270   36.0580   59.8150 N.pl3 295  ARG295      0.1354
     68  N         26.9260   30.3610   62.7480 N.am  296  VAL296     -0.1966
     69  CA        26.4170   29.0060   62.9410 C.3   296  VAL296      0.1727
     70  C         25.3590   28.6130   61.8880 C.2   296  VAL296      0.2616
     71  O         25.4000   27.5160   61.3090 O.2   296  VAL296     -0.2715
     72  CB        25.7830   28.8770   64.3620 C.3   296  VAL296      0.0290
     73  CG1       25.2340   27.4850   64.5840 C.3   296  VAL296      0.0023
     74  CG2       26.8160   29.2150   65.4290 C.3   296  VAL296      0.0023
     75  N         24.3620   29.4720   61.7120 N.am  297  ALA297     -0.1963
     76  CA        23.1890   29.1260   60.9380 C.3   297  ALA297      0.1728
     77  C         23.1750   29.9410   59.6520 C.2   297  ALA297      0.2616
     78  O         22.8030   31.0950   59.6640 O.2   297  ALA297     -0.2715
     79  CB        21.9280   29.4010   61.7680 C.3   297  ALA297      0.0334
     80  N         23.6680   29.3700   58.5580 N.am  298  ALA298     -0.1963
     81  CA        23.8000   30.1260   57.3130 C.3   298  ALA298      0.1728
     82  C         22.8300   29.6680   56.2420 C.2   298  ALA298      0.2616
     83  O         22.7940   30.2470   55.1560 O.2   298  ALA298     -0.2715
     84  CB        25.2120   30.0330   56.7920 C.3   298  ALA298      0.0334
     85  N         22.1380   28.5600   56.5130 N.am  299  LEU299     -0.1963
     86  CA        21.1110   27.9970   55.6280 C.3   299  LEU299      0.1728
     87  C         21.6510   27.8610   54.2070 C.2   299  LEU299      0.2616
     88  O         21.0470   28.3250   53.2450 O.2   299  LEU299     -0.2715
     89  CB        19.8530   28.8750   55.6450 C.3   299  LEU299      0.0311
     90  CG        18.4480   28.2910   55.8690 C.3   299  LEU299      0.0022
     91  CD1       17.5240   28.8000   54.7930 C.3   299  LEU299      0.0001
     92  CD2       18.4550   26.8000   55.9070 C.3   299  LEU299      0.0001
     93  N         22.8160   27.2300   54.1030 N.am  300  LEU300     -0.1963
     94  CA        23.5680   27.1260   52.8530 C.3   300  LEU300      0.1728
     95  C         22.8250   26.3800   51.7420 C.2   300  LEU300      0.2616
     96  O         22.9960   26.6750   50.5660 O.2   300  LEU300     -0.2715
     97  CB        24.9120   26.4420   53.1270 C.3   300  LEU300      0.0311
     98  CG        26.2030   27.2750   53.1490 C.3   300  LEU300      0.0022
     99  CD1       25.9040   28.7760   53.1330 C.3   300  LEU300      0.0001
    100  CD2       27.0180   26.8720   54.3720 C.3   300  LEU300      0.0001
    101  N         21.9460   25.4710   52.1310 N.am  301  SER301     -0.1950
    102  CA        21.1330   24.7250   51.1810 C.3   301  SER301      0.1924
    103  C         20.1340   25.6000   50.4330 C.2   301  SER301      0.2314
    104  O         19.5580   25.1590   49.4470 O.2   301  SER301     -0.2863
    105  CB        20.3740   23.6170   51.9040 C.3   301  SER301      0.2116
    106  OG        19.3800   24.1620   52.7600 O.3   301  SER301     -0.2180
@<TRIPOS>BOND
     1   104   103    2
     2   103   102    1
     3    96    95    2
     4   102   105    1
     5   102   101    1
     6    95   101   am
     7    95    94    1
     8   105   106    1
     9    49    48    2
    10    48    47    1
    11    94    97    1
    12    94    93    1
    13    97    98    1
    14    99    98    1
    15    98   100    1
    16    88    87    2
    17    53    55   ar
    18    53    51   ar
    19    47    50    1
    20    47    46    1
    21    55    56   ar
    22    93    87   am
    23    87    86    1
    24    50    51    1
    25    51    52   ar
    26    91    90    1
    27    83    82    2
    28    56    54   ar
    29    86    89    1
    30    86    85    1
    31    89    90    1
    32    90    92    1
    33    52    54   ar
    34    82    85   am
    35    82    81    1
    36    84    81    1
    37    35    34    2
    38    34    33    1
    39    81    80    1
    40    16    14   ar
    41    16    17   ar
    42    36    33    1
    43    36    37    1
    44    11    10    2
    45    42    44   ar
    46    42    39   ar
    47    19    17   ar
    48    19    21   ar
    49    66    65    1
    50    33    32    1
    51    14    13   ar
    52    17    15   ar
    53    10     9    1
    54    63    64    1
    55    63    62    1
    56    44    45   ar
    57    80    77   am
    58    37    39   ar
    59    37    38   ar
    60    39    41   ar
    61    64    65    2
    62    21    20   ar
    63    65    67    1
    64    32    24   am
    65    13    15   ar
    66    13    12    1
    67    15    18   ar
    68    45    43   ar
    69    62    61    1
    70    38    40   ar
    71    77    78    2
    72    77    76    1
    73     9    12    1
    74     9     8    1
    75    41    43   ar
    76    41    40   ar
    77    20    18   ar
    78    61    58    1
    79    24    25    2
    80    24    23    1
    81    60    59    2
    82    76    75    1
    83    76    79    1
    84    22    23    1
    85    57    58    1
    86    71    70    2
    87    58    59    1
    88    26    23    1
    89    26    27    1
    90    59    68   am
    91    75    70   am
    92     7     5    1
    93    70    69    1
    94    27    29   ar
    95    27    28   ar
    96    29    31   ar
    97    68    69    1
    98     5     6    1
    99     5     2    1
   100    28    30   ar
   101    69    72    1
   102    31    30   ar
   103     2     1    1
   104     2     3    1
   105    72    73    1
   106    72    74    1
   107     4     3    2
