@<TRIPOS>MOLECULE
tmp/1az8A00.pdb
 191 189 0 0 0
SMALL
GASTEIGER

@<TRIPOS>ATOM
      1  N         20.2200   12.4940   25.1570 N.3    40  HIS40      -0.1241
      2  CA        21.1740   11.3920   25.1370 C.3    40  HIS40       0.1621
      3  C         22.2950   11.5830   26.2080 C.2    40  HIS40       0.2264
      4  O         23.0790   10.6790   26.4480 O.2    40  HIS40      -0.2867
      5  CB        21.6930   11.1310   23.6530 C.3    40  HIS40       0.0745
      6  CG        22.8710   11.9660   23.2470 C.ar   40  HIS40       0.0817
      7  ND1       22.7810   12.9720   22.3060 N.ar   40  HIS40      -0.2268
      8  CD2       24.1730   11.9160   23.6190 C.ar   40  HIS40       0.1154
      9  CE1       23.9660   13.5220   22.1370 C.ar   40  HIS40       0.1986
     10  NE2       24.8340   12.8970   22.9180 N.ar   40  HIS40      -0.2212
     11  N         17.4400    9.4940   17.5590 N.3    81  LEU81      -0.1245
     12  CA        17.8160   10.7570   18.1910 C.3    81  LEU81       0.1561
     13  C         16.8690   11.8970   17.8740 C.2    81  LEU81       0.2260
     14  O         17.1900   13.0550   18.1100 O.2    81  LEU81      -0.2867
     15  CB        19.2770   11.1410   17.8450 C.3    81  LEU81       0.0270
     16  CG        20.3830   10.2210   18.4080 C.3    81  LEU81       0.0019
     17  CD1       21.7340   10.8870   18.1960 C.3    81  LEU81       0.0001
     18  CD2       20.1610    9.9570   19.9120 C.3    81  LEU81       0.0001
     19  N         36.2500   16.1070   22.3320 N.3   123  ASN123     -0.1240
     20  CA        37.4380   15.7130   21.5780 C.3   123  ASN123      0.1653
     21  C         37.8230   16.7140   20.4800 C.2   123  ASN123      0.2266
     22  O         36.9550   17.2990   19.8020 O.2   123  ASN123     -0.2867
     23  CB        37.2160   14.3280   20.9340 C.3   123  ASN123      0.1155
     24  CG        38.4380   13.6900   20.2710 C.2   123  ASN123      0.2627
     25  OD1       39.5760   14.0060   20.5910 O.2   123  ASN123     -0.2716
     26  ND2       38.1930   12.7910   19.3410 N.am  123  ASN123     -0.0877
     27  N         40.1830   15.8990   18.0060 N.3   125  LYS125     -0.1231
     28  CA        40.6500   15.1860   16.8120 C.3   125  LYS125      0.1693
     29  C         39.5210   14.3050   16.1510 C.2   125  LYS125      0.2593
     30  O         38.6350   13.7840   16.8340 O.2   125  LYS125     -0.2718
     31  CB        41.8580   14.2370   17.1450 C.3   125  LYS125      0.0285
     32  CG        42.8590   14.7690   18.1670 C.3   125  LYS125      0.0035
     33  CD        43.4890   16.0840   17.7350 C.3   125  LYS125      0.0206
     34  CE        44.1670   16.7880   18.9220 C.3   125  LYS125      0.1093
     35  NZ        44.1010   18.2970   18.8970 N.3   125  LYS125     -0.1314
     36  N         39.5920   14.1490   14.8320 N.am  126  SER126     -0.1938
     37  CA        38.5960   13.3740   14.0900 C.3   126  SER126      0.2055
     38  C         38.8770   11.8960   14.0920 C.2   126  SER126      0.2644
     39  O         37.9510   11.0850   14.0790 O.2   126  SER126     -0.2714
     40  CB        38.5430   13.8200   12.6740 C.3   126  SER126      0.2130
     41  OG        39.8470   14.1250   12.2150 O.3   126  SER126     -0.2179
     42  N         40.1540   11.5300   14.0420 N.am  127  SER127     -0.1935
     43  CA        40.5400   10.1230   14.1280 C.3   127  SER127      0.2055
     44  C         41.1360    9.7700   15.4840 C.2   127  SER127      0.2644
     45  O         40.7820    8.7530   16.0910 O.2   127  SER127     -0.2714
     46  CB        41.5430    9.7730   13.0160 C.3   127  SER127      0.2130
     47  OG        40.9180    9.8360   11.7460 O.3   127  SER127     -0.2179
     48  N         42.0210   10.6310   15.9720 N.am  128  GLY128     -0.1939
     49  CA        42.6080   10.4090   17.2750 C.3   128  GLY128      0.2014
     50  C         41.7440   10.9650   18.3900 C.2   128  GLY128      0.2639
     51  O         40.6400   11.4790   18.1530 O.2   128  GLY128     -0.2714
     52  N         42.2980   10.9430   19.5970 N.am  129  THR129     -0.1950
     53  CA        41.5960   11.4060   20.7820 C.3   129  THR129      0.1897
     54  C         42.4750   12.3260   21.5500 C.2   129  THR129      0.2313
     55  O         43.6420   12.0180   21.8030 O.2   129  THR129     -0.2863
     56  CB        41.1980   10.2210   21.6860 C.3   129  THR129      0.1794
     57  OG1       40.2520    9.3920   21.0000 O.3   129  THR129     -0.2208
     58  CG2       40.5750   10.7030   22.9600 C.3   129  THR129      0.0378
     59  N         41.4310   15.2970   24.6460 N.3   131  TYR131     -0.1241
     60  CA        40.4430   16.1200   25.3100 C.3   131  TYR131      0.1605
     61  C         41.0860   17.2870   25.8960 C.2   131  TYR131      0.2264
     62  O         42.0780   17.1430   26.6120 O.2   131  TYR131     -0.2867
     63  CB        39.7370   15.3160   26.3610 C.3   131  TYR131      0.0534
     64  CG        38.7130   14.3810   25.7830 C.ar  131  TYR131     -0.0201
     65  CD1       39.1000   13.2160   25.1300 C.ar  131  TYR131     -0.0009
     66  CD2       37.3520   14.6990   25.8280 C.ar  131  TYR131     -0.0009
     67  CE1       38.1600   12.3890   24.5340 C.ar  131  TYR131      0.0417
     68  CE2       36.4020   13.8800   25.2280 C.ar  131  TYR131      0.0417
     69  CZ        36.8150   12.7280   24.5850 C.ar  131  TYR131      0.1957
     70  OH        35.8880   11.9080   23.9800 O.3   131  TYR131     -0.2866
     71  N         34.2740   20.9280   13.2900 N.3   171  ASP171     -0.1225
     72  CA        33.0500   20.2690   13.7500 C.3   171  ASP171      0.1805
     73  C         33.0070   20.1250   15.2760 C.2   171  ASP171      0.2598
     74  O         34.0370   20.1850   15.9470 O.2   171  ASP171     -0.2718
     75  CB        32.9270   18.8480   13.1090 C.3   171  ASP171      0.1424
     76  CG        31.5530   18.2030   13.1080 C.2   171  ASP171      0.3668
     77  OD1       30.5600   18.8100   13.5500 O.co2 171  ASP171     -0.2456
     78  OD2       31.4660   17.0360   12.6710 O.co2 171  ASP171     -0.2456
     79  N         31.8180   19.9430   15.8300 N.am  172  SER172     -0.1938
     80  CA        31.7290   19.4720   17.2020 C.3   172  SER172      0.2055
     81  C         32.0060   17.9620   17.2250 C.2   172  SER172      0.2643
     82  O         32.0670   17.3070   16.1730 O.2   172  SER172     -0.2714
     83  CB        30.3480   19.8500   17.8150 C.3   172  SER172      0.2130
     84  OG        29.2870   19.3280   17.0460 O.3   172  SER172     -0.2179
     85  N         32.1280   17.4060   18.4260 N.am  173  CYS173     -0.1953
     86  CA        32.5270   16.0140   18.5730 C.3   173  CYS173      0.1843
     87  C         32.0500   15.4500   19.9170 C.2   173  CYS173      0.2625
     88  O         31.3840   16.1360   20.7000 O.2   173  CYS173     -0.2714
     89  CB        34.0790   15.8960   18.4450 C.3   173  CYS173      0.0997
     90  SG        34.7080   14.2580   17.9950 S.3   173  CYS173     -0.0797
     91  N         32.4250   14.2040   20.1800 N.am  174  GLN174     -0.1977
     92  CA        32.0950   13.5240   21.4240 C.3   174  GLN174      0.1601
     93  C         32.6240   14.3120   22.6560 C.2   174  GLN174      0.2287
     94  O         33.7640   14.7890   22.6640 O.2   174  GLN174     -0.2864
     95  CB        32.6550   12.1520   21.3730 C.3   174  GLN174      0.0394
     96  CG        31.8540   11.1480   22.1580 C.3   174  GLN174      0.0908
     97  CD        32.8770   10.8320   23.1960 C.2   174  GLN174      0.2608
     98  OE1       33.0540   11.5890   24.1610 O.2   174  GLN174     -0.2717
     99  NE2       33.6330    9.7550   22.9770 N.am  174  GLN174     -0.0878
    100  N         28.5740   16.9950   23.2850 N.3   177  SER177     -0.1217
    101  CA        27.1490   16.6400   23.3200 C.3   177  SER177      0.1889
    102  C         26.3560   17.3410   24.4060 C.2   177  SER177      0.2288
    103  O         26.8190   17.4660   25.5350 O.2   177  SER177     -0.2866
    104  CB        26.9750   15.1550   23.5500 C.3   177  SER177      0.2089
    105  OG        27.7120   14.4210   22.5940 O.3   177  SER177     -0.2183
    106  N         24.1570   20.4040   20.5640 N.3   191  VAL191     -0.1231
    107  CA        25.0590   19.4100   19.9950 C.3   191  VAL191      0.1692
    108  C         24.4530   17.9930   20.1790 C.2   191  VAL191      0.2593
    109  O         24.2350   17.5370   21.3070 O.2   191  VAL191     -0.2718
    110  CB        26.4510   19.4820   20.6720 C.3   191  VAL191      0.0266
    111  CG1       27.4270   18.5190   20.0000 C.3   191  VAL191      0.0020
    112  CG2       26.9830   20.9190   20.5810 C.3   191  VAL191      0.0020
    113  N         24.1190   17.3390   19.0720 N.am  192  SER192     -0.1938
    114  CA        23.3850   16.0820   19.1430 C.3   192  SER192      0.2055
    115  C         24.1580   14.9050   18.5830 C.2   192  SER192      0.2643
    116  O         24.5360   14.0090   19.3320 O.2   192  SER192     -0.2714
    117  CB        22.0170   16.2360   18.4520 C.3   192  SER192      0.2130
    118  OG        21.2590   15.0440   18.5510 O.3   192  SER192     -0.2179
    119  N         24.3970   14.8880   17.2750 N.am  193  TRP193     -0.1959
    120  CA        25.0580   13.7460   16.6570 C.3   193  TRP193      0.1771
    121  C         25.7610   14.0600   15.3280 C.2   193  TRP193      0.2620
    122  O         25.7650   15.2030   14.8560 O.2   193  TRP193     -0.2715
    123  CB        24.0460   12.5890   16.4670 C.3   193  TRP193      0.0590
    124  CG        22.9600   12.8580   15.4530 C.ar  193  TRP193      0.0006
    125  CD1       21.7800   13.5060   15.6710 C.ar  193  TRP193      0.0946
    126  CD2       22.8970   12.3520   14.1060 C.ar  193  TRP193      0.0152
    127  NE1       20.9740   13.4180   14.5570 N.ar  193  TRP193     -0.2442
    128  CE2       21.6300   12.7120   13.5850 C.ar  193  TRP193      0.0810
    129  CE3       23.7810   11.6230   13.2970 C.ar  193  TRP193      0.0012
    130  CZ2       21.2220   12.3620   12.2950 C.ar  193  TRP193      0.0191
    131  CZ3       23.3800   11.2760   12.0160 C.ar  193  TRP193      0.0001
    132  CH2       22.1060   11.6450   11.5250 C.ar  193  TRP193      0.0015
    133  N         26.4160   13.0460   14.7710 N.am  194  GLY194     -0.1940
    134  CA        27.0540   13.1800   13.4730 C.3   194  GLY194      0.2014
    135  C         27.7640   11.8850   13.1380 C.2   194  GLY194      0.2640
    136  O         27.8340   10.9920   13.9850 O.2   194  GLY194     -0.2714
    137  N         28.1910   11.7220   11.8900 N.am  195  SER195     -0.1935
    138  CA        29.0090   10.5680   11.5320 C.3   195  SER195      0.2055
    139  C         30.4320   10.8950   11.7080 C.2   195  SER195      0.2644
    140  O         30.9760   11.7000   10.9490 O.2   195  SER195     -0.2714
    141  CB        28.8080   10.1680   10.0840 C.3   195  SER195      0.2130
    142  OG        27.5210    9.6170    9.8880 O.3   195  SER195     -0.2179
    143  N         31.0560   10.3080   12.7300 N.am  196  GLY196     -0.1939
    144  CA        32.4080   10.6920   13.0820 C.3   196  GLY196      0.2014
    145  C         32.4130   12.1590   13.4640 C.2   196  GLY196      0.2639
    146  O         31.3700   12.7080   13.8370 O.2   196  GLY196     -0.2714
    147  N         33.5500   12.8200   13.2630 N.am  197  CYS197     -0.1967
    148  CA        33.6660   14.2570   13.4850 C.3   197  CYS197      0.1712
    149  C         34.5350   14.8750   12.4390 C.2   197  CYS197      0.2296
    150  O         35.5800   14.3240   12.0800 O.2   197  CYS197     -0.2864
    151  CB        34.2750   14.5360   14.8430 C.3   197  CYS197      0.0983
    152  SG        33.4350   13.6690   16.1820 S.3   197  CYS197     -0.0798
    153  N         29.9950   15.1500    6.0920 N.3   202  LYS202     -0.1231
    154  CA        29.2540   14.7070    7.2720 C.3   202  LYS202      0.1678
    155  C         29.2360   15.8050    8.3780 C.2   202  LYS202      0.2434
    156  O         29.9830   15.7270    9.3540 O.2   202  LYS202     -0.2733
    157  CB        29.8730   13.3910    7.8320 C.3   202  LYS202      0.0284
    158  CG        29.6730   12.1800    6.9330 C.3   202  LYS202      0.0035
    159  CD        28.1950   11.8260    6.8300 C.3   202  LYS202      0.0206
    160  CE        27.8680   11.1490    5.5050 C.3   202  LYS202      0.1093
    161  NZ        26.6960   10.2320    5.6190 N.3   202  LYS202     -0.1314
    162  N         28.4080   16.8550    8.2020 N.am  203  PRO203     -0.2718
    163  CA        28.3740   17.9760    9.1520 C.3   203  PRO203      0.1535
    164  C         27.7660   17.5700   10.5100 C.2   203  PRO203      0.2599
    165  O         27.1300   16.5170   10.6240 O.2   203  PRO203     -0.2715
    166  CB        27.5590   19.0380    8.4020 C.3   203  PRO203      0.0310
    167  CG        26.6290   18.2350    7.5630 C.3   203  PRO203      0.0237
    168  CD        27.4640   17.0660    7.0890 C.3   203  PRO203      0.0939
    169  N         27.8580   18.4720   11.4830 N.am  204  GLY204     -0.1941
    170  CA        27.1910   18.2670   12.7530 C.3   204  GLY204      0.2014
    171  C         25.6850   18.4070   12.6340 C.2   204  GLY204      0.2639
    172  O         25.1840   19.2720   11.9150 O.2   204  GLY204     -0.2714
    173  N         24.9620   17.5380   13.3340 N.am  205  VAL205     -0.1963
    174  CA        23.5030   17.5800   13.3820 C.3   205  VAL205      0.1727
    175  C         23.0700   18.0050   14.7620 C.2   205  VAL205      0.2616
    176  O         23.6080   17.5210   15.7660 O.2   205  VAL205     -0.2715
    177  CB        22.9010   16.2220   13.0790 C.3   205  VAL205      0.0290
    178  CG1       21.3860   16.4130   12.9430 C.3   205  VAL205      0.0023
    179  CG2       23.4950   15.6100   11.8290 C.3   205  VAL205      0.0023
    180  N         22.1110   18.9240   14.8150 N.am  206  TYR206     -0.1974
    181  CA        21.7880   19.6520   16.0370 C.3   206  TYR206      0.1639
    182  C         20.3070   19.6400   16.3040 C.2   206  TYR206      0.2290
    183  O         19.4920   19.6960   15.3770 O.2   206  TYR206     -0.2864
    184  CB        22.3040   21.1170   15.9330 C.3   206  TYR206      0.0560
    185  CG        23.8050   21.2040   15.7810 C.ar  206  TYR206     -0.0198
    186  CD1       24.6350   21.1600   16.9010 C.ar  206  TYR206     -0.0009
    187  CD2       24.4060   21.1910   14.5180 C.ar  206  TYR206     -0.0009
    188  CE1       26.0130   21.1010   16.7810 C.ar  206  TYR206      0.0417
    189  CE2       25.7920   21.1190   14.3840 C.ar  206  TYR206      0.0417
    190  CZ        26.5880   21.0740   15.5220 C.ar  206  TYR206      0.1957
    191  OH        27.9550   20.9800   15.4140 O.3   206  TYR206     -0.2866
@<TRIPOS>BOND
     1   160   161    1
     2   160   159    1
     3   153   154    1
     4   159   158    1
     5   158   157    1
     6   168   167    1
     7   168   162    1
     8   154   157    1
     9   154   155    1
    10   167   166    1
    11   162   155   am
    12   162   163    1
    13   155   156    2
    14   166   163    1
    15   163   164    1
    16   142   141    1
    17   141   138    1
    18   164   165    2
    19   164   169   am
    20   140   139    2
    21   169   170    1
    22   132   131   ar
    23   132   130   ar
    24   138   139    1
    25   138   137    1
    26   139   143   am
    27    47    46    1
    28   179   177    1
    29   137   135   am
    30   172   171    2
    31   131   129   ar
    32   150   149    2
    33    41    40    1
    34   130   128   ar
    35   149   148    1
    36   171   170    1
    37   171   173   am
    38    78    76   ar
    39    40    37    1
    40   143   144    1
    41   178   177    1
    42    46    43    1
    43   177   174    1
    44   144   145    1
    45    76    75    1
    46    76    77   ar
    47    75    72    1
    48   135   134    1
    49   135   136    2
    50   147   145   am
    51   147   148    1
    52    71    72    1
    53   129   126   ar
    54   173   174    1
    55   174   175    1
    56   145   146    2
    57   134   133    1
    58   148   151    1
    59   128   126   ar
    60   128   127   ar
    61    72    73    1
    62    42    38   am
    63    42    43    1
    64    39    38    2
    65    37    38    1
    66    37    36    1
    67   126   124   ar
    68    43    44    1
    69   189   187   ar
    70   189   190   ar
    71   187   185   ar
    72   127   125   ar
    73   175   180   am
    74   175   176    2
    75   133   121   am
    76   180   181    1
    77    36    29   am
    78   151   152    1
    79   122   121    2
    80    73    79   am
    81    73    74    2
    82   121   120    1
    83   183   182    2
    84   191   190    1
    85   124   125   ar
    86   124   123    1
    87    44    48   am
    88    44    45    2
    89   190   188   ar
    90   185   184    1
    91   185   186   ar
    92    79    80    1
    93   184   181    1
    94    48    49    1
    95   181   182    1
    96    29    28    1
    97    29    30    2
    98    82    81    2
    99   152    90    1
   100   123   120    1
   101   120   119    1
   102   188   186   ar
   103    28    31    1
   104    28    27    1
   105    84    83    1
   106    31    32    1
   107    80    81    1
   108    80    83    1
   109    81    85   am
   110   119   115   am
   111    49    50    1
   112    11    12    1
   113    33    32    1
   114    33    34    1
   115    15    12    1
   116    15    16    1
   117    13    14    2
   118    13    12    1
   119    90    89    1
   120    51    50    2
   121    17    16    1
   122    50    52   am
   123    16    18    1
   124    85    86    1
   125    89    86    1
   126   117   118    1
   127   117   114    1
   128    86    87    1
   129   115   114    1
   130   115   116    2
   131    35    34    1
   132   113   114    1
   133   113   108   am
   134    26    24   am
   135    52    53    1
   136    22    21    2
   137    87    91   am
   138    87    88    2
   139   107   108    1
   140   107   106    1
   141   107   110    1
   142   111   110    1
   143   108   109    2
   144    91    92    1
   145    24    25    2
   146    24    23    1
   147    21    20    1
   148   112   110    1
   149    53    54    1
   150    53    56    1
   151    23    20    1
   152    57    56    1
   153    95    92    1
   154    95    96    1
   155    92    93    1
   156    54    55    2
   157    20    19    1
   158    56    58    1
   159     9     7   ar
   160     9    10   ar
   161    96    97    1
   162     7     6   ar
   163   105   104    1
   164    93    94    2
   165    10     8   ar
   166    99    97   am
   167    97    98    2
   168     6     8   ar
   169     6     5    1
   170   100   101    1
   171   101   104    1
   172   101   102    1
   173     5     2    1
   174    70    69    1
   175   102   103    2
   176    67    69   ar
   177    67    65   ar
   178    69    68   ar
   179    59    60    1
   180    65    64   ar
   181     2     1    1
   182     2     3    1
   183    68    66   ar
   184    60    61    1
   185    60    63    1
   186    64    66   ar
   187    64    63    1
   188    61    62    2
   189     3     4    2
