@<TRIPOS>MOLECULE
tmp/1azxB00.pdb
 85 81 0 0 0
SMALL
GASTEIGER

@<TRIPOS>ATOM
      1  N        -14.6880  -12.2020   35.9240 N.3    14  ASN14      -0.1226
      2  CA       -15.9560  -11.5470   35.6120 C.3    14  ASN14       0.1770
      3  C        -15.8040  -10.0590   35.3160 C.2    14  ASN14       0.2439
      4  O        -15.3760   -9.2810   36.1730 O.2    14  ASN14      -0.2733
      5  CB       -16.9780  -11.7590   36.7370 C.3    14  ASN14       0.1168
      6  CG       -16.7390  -10.8520   37.9250 C.2    14  ASN14       0.2627
      7  OD1      -15.8010  -11.0510   38.6960 O.2    14  ASN14      -0.2716
      8  ND2      -17.5820   -9.8370   38.0690 N.am   14  ASN14      -0.0877
      9  N        -16.1150   -9.6510   34.0760 N.am   15  PRO15      -0.2718
     10  CA       -16.0150   -8.2460   33.6690 C.3    15  PRO15       0.1535
     11  C        -17.2280   -7.4700   34.1780 C.2    15  PRO15       0.2598
     12  O        -18.2550   -8.0650   34.5110 O.2    15  PRO15      -0.2715
     13  CB       -16.0060   -8.3450   32.1490 C.3    15  PRO15       0.0310
     14  CG       -16.9480   -9.4910   31.9010 C.3    15  PRO15       0.0237
     15  CD       -16.5070  -10.5040   32.9380 C.3    15  PRO15       0.0939
     16  N        -17.1040   -6.1470   34.2270 N.am   16  MET16      -0.1978
     17  CA       -18.1800   -5.2750   34.6990 C.3    16  MET16       0.1605
     18  C        -19.4770   -5.5100   33.9280 C.2    16  MET16       0.2287
     19  O        -20.4660   -5.9690   34.4910 O.2    16  MET16      -0.2864
     20  CB       -17.7520   -3.8060   34.5860 C.3    16  MET16       0.0413
     21  CG       -18.7980   -2.7780   35.0120 C.3    16  MET16       0.0598
     22  SD       -19.2570   -2.8430   36.7480 S.3    16  MET16      -0.1393
     23  CE       -20.9940   -3.2770   36.6040 C.3    16  MET16       0.0692
     24  N        -11.7260   -0.6760   42.2300 N.3   138  ASN138     -0.1240
     25  CA       -12.3910   -1.9690   42.2790 C.3   138  ASN138      0.1653
     26  C        -11.3320   -3.0620   42.3290 C.2   138  ASN138      0.2266
     27  O        -10.4640   -3.1240   41.4620 O.2   138  ASN138     -0.2867
     28  CB       -13.2710   -2.1240   41.0380 C.3   138  ASN138      0.1155
     29  CG       -14.0080   -3.4430   40.9970 C.2   138  ASN138      0.2627
     30  OD1      -13.4750   -4.4780   41.4070 O.2   138  ASN138     -0.2716
     31  ND2      -15.2360   -3.4220   40.4770 N.am  138  ASN138     -0.0877
     32  N        -11.6320   -6.3910   41.9840 N.3   140  THR140     -0.1203
     33  CA       -11.7780   -7.3170   40.8740 C.3   140  THR140      0.1994
     34  C        -11.2110   -6.6770   39.6150 C.2   140  THR140      0.2617
     35  O        -10.4830   -7.3260   38.8660 O.2   140  THR140     -0.2717
     36  CB       -13.2490   -7.6940   40.6640 C.3   140  THR140      0.1784
     37  OG1      -13.7910   -8.1730   41.9030 O.3   140  THR140     -0.2211
     38  CG2      -13.3800   -8.7700   39.6020 C.3   140  THR140      0.0376
     39  N        -11.4940   -5.3900   39.4190 N.am  141  TYR141     -0.1975
     40  CA       -10.9880   -4.6680   38.2540 C.3   141  TYR141      0.1639
     41  C         -9.4660   -4.7610   38.2250 C.2   141  TYR141      0.2290
     42  O         -8.8730   -5.0950   37.2020 O.2   141  TYR141     -0.2864
     43  CB       -11.4180   -3.2010   38.2820 C.3   141  TYR141      0.0560
     44  CG       -10.6600   -2.3410   37.2940 C.ar  141  TYR141     -0.0198
     45  CD1      -10.8330   -2.5060   35.9190 C.ar  141  TYR141     -0.0009
     46  CD2       -9.7350   -1.3910   37.7340 C.ar  141  TYR141     -0.0009
     47  CE1      -10.1050   -1.7540   35.0070 C.ar  141  TYR141      0.0417
     48  CE2       -9.0000   -0.6300   36.8310 C.ar  141  TYR141      0.0417
     49  CZ        -9.1880   -0.8180   35.4670 C.ar  141  TYR141      0.1957
     50  OH        -8.4560   -0.0770   34.5610 O.3   141  TYR141     -0.2866
     51  N         -8.2490   -8.4580   37.5260 N.3   144  ILE144     -0.1245
     52  CA        -8.3850   -8.8660   36.1340 C.3   144  ILE144      0.1561
     53  C         -7.3380   -8.2090   35.2200 C.2   144  ILE144      0.2260
     54  O         -6.8100   -8.8550   34.3200 O.2   144  ILE144     -0.2867
     55  CB        -9.7970   -8.5880   35.5970 C.3   144  ILE144      0.0252
     56  CG1      -10.8310   -9.2990   36.4760 C.3   144  ILE144      0.0019
     57  CG2       -9.9080   -9.0710   34.1540 C.3   144  ILE144      0.0019
     58  CD1      -12.2640   -9.1510   36.0110 C.3   144  ILE144      0.0001
     59  N        -18.2710    2.4070   35.0190 N.3   335  PRO335     -0.2102
     60  CA       -18.6110    1.9620   36.3780 C.3   335  PRO335      0.1504
     61  C        -17.6650    0.9430   37.0300 C.2   335  PRO335      0.2576
     62  O        -17.6020    0.8480   38.2580 O.2   335  PRO335     -0.2718
     63  CB       -19.9970    1.3630   36.1900 C.3   335  PRO335      0.0282
     64  CG       -19.8730    0.7290   34.8370 C.3   335  PRO335      0.0208
     65  CD       -19.2130    1.8310   34.0410 C.3   335  PRO335      0.0893
     66  N        -16.9350    0.1830   36.2170 N.am  336  GLY336     -0.1957
     67  CA       -16.0410   -0.8200   36.7640 C.3   336  GLY336      0.1869
     68  C        -14.6130   -0.4200   37.0780 C.2   336  GLY336      0.2309
     69  O        -13.7320   -1.2790   37.0490 O.2   336  GLY336     -0.2863
     70  N        -13.4420    2.4970   39.7900 N.3   338  VAL338     -0.1231
     71  CA       -13.2970    2.7880   41.2210 C.3   338  VAL338      0.1692
     72  C        -14.4430    2.1670   42.0170 C.2   338  VAL338      0.2591
     73  O        -15.6070    2.2650   41.6230 O.2   338  VAL338     -0.2718
     74  CB       -13.2290    4.3200   41.5290 C.3   338  VAL338      0.0266
     75  CG1      -12.0850    4.9780   40.7780 C.3   338  VAL338      0.0020
     76  CG2      -14.5300    4.9910   41.1900 C.3   338  VAL338      0.0020
     77  N        -14.1080    1.5500   43.1460 N.am  339  ALA339     -0.1980
     78  CA       -15.1000    0.9000   43.9970 C.3   339  ALA339      0.1597
     79  C        -16.1610    1.8790   44.4960 C.2   339  ALA339      0.2287
     80  O        -17.3280    1.5190   44.6630 O.2   339  ALA339     -0.2864
     81  CB       -14.4110    0.2200   45.1730 C.3   339  ALA339      0.0319
     82  N        -18.1480    3.6300   43.3100 N.3   341  GLY341     -0.1225
     83  CA       -19.2990    3.8150   42.4440 C.3   341  GLY341      0.1811
     84  C        -19.2670    5.1130   41.6580 C.2   341  GLY341      0.2280
     85  O        -20.3130    5.5820   41.1880 O.2   341  GLY341     -0.2866
@<TRIPOS>BOND
     1    14    13    1
     2    14    15    1
     3    13    10    1
     4    15     9    1
     5    10     9    1
     6    10    11    1
     7    18    19    2
     8    18    17    1
     9    65    64    1
    10    65    59    1
    11     9     3   am
    12    57    55    1
    13    11    16   am
    14    11    12    2
    15    16    17    1
    16    54    53    2
    17    50    49    1
    18    20    17    1
    19    20    21    1
    20    64    63    1
    21    47    49   ar
    22    47    45   ar
    23    21    22    1
    24    59    60    1
    25    53    52    1
    26     3     2    1
    27     3     4    2
    28    49    48   ar
    29    55    52    1
    30    55    56    1
    31     2     1    1
    32     2     5    1
    33    45    44   ar
    34    58    56    1
    35    52    51    1
    36    63    60    1
    37    66    67    1
    38    66    61   am
    39    60    61    1
    40    23    22    1
    41     5     6    1
    42    67    68    1
    43    48    46   ar
    44    61    62    2
    45    69    68    2
    46    42    41    2
    47    44    46   ar
    48    44    43    1
    49     6     8   am
    50     6     7    2
    51    41    40    1
    52    40    43    1
    53    40    39    1
    54    35    34    2
    55    39    34   am
    56    38    36    1
    57    34    33    1
    58    70    71    1
    59    31    29   am
    60    36    33    1
    61    36    37    1
    62    75    74    1
    63    33    32    1
    64    29    28    1
    65    29    30    2
    66    28    25    1
    67    85    84    2
    68    76    74    1
    69    71    74    1
    70    71    72    1
    71    27    26    2
    72    73    72    2
    73    84    83    1
    74    72    77   am
    75    24    25    1
    76    25    26    1
    77    83    82    1
    78    77    78    1
    79    78    79    1
    80    78    81    1
    81    79    80    2
