@<TRIPOS>MOLECULE
tmp/1b02A01.pdb
 244 238 0 0 0
SMALL
GASTEIGER

@<TRIPOS>ATOM
      1  N        -16.6980   54.5730   11.4590 N.3    28  ARG28      -0.1231
      2  CA       -16.0920   55.4080   10.4270 C.3    28  ARG28       0.1694
      3  C        -16.1250   54.8020    9.0260 C.2    28  ARG28       0.2592
      4  O        -16.2120   55.5220    8.0290 O.2    28  ARG28      -0.2718
      5  CB       -14.6390   55.7120   10.8060 C.3    28  ARG28       0.0321
      6  CG       -13.8280   56.3840    9.7090 C.3    28  ARG28       0.0489
      7  CD       -12.3370   56.1530    9.8960 C.3    28  ARG28       0.2205
      8  NE       -11.9110   54.8670    9.3530 N.pl3  28  ARG28      -0.0865
      9  CZ       -11.7520   54.6200    8.0570 C.cat  28  ARG28       0.5346
     10  NH1      -11.9830   55.5720    7.1640 N.pl3  28  ARG28       0.1354
     11  NH2      -11.3580   53.4200    7.6530 N.pl3  28  ARG28       0.1354
     12  N        -16.0620   53.4780    8.9550 N.am   29  THR29      -0.1953
     13  CA       -16.0430   52.7840    7.6780 C.3    29  THR29       0.1897
     14  C        -17.4000   52.5610    7.0110 C.2    29  THR29       0.2313
     15  O        -18.3990   52.2790    7.6720 O.2    29  THR29      -0.2863
     16  CB       -15.3500   51.4240    7.8310 C.3    29  THR29       0.1794
     17  OG1      -15.9390   50.7150    8.9280 O.3    29  THR29      -0.2208
     18  CG2      -13.8640   51.6140    8.1010 C.3    29  THR29       0.0378
     19  N         -5.8400   30.2220    1.1260 N.3    61  LYS61      -0.1231
     20  CA        -6.3530   31.0980    0.0850 C.3    61  LYS61       0.1693
     21  C         -5.1770   31.6880   -0.6850 C.2    61  LYS61       0.2592
     22  O         -4.0360   31.6330   -0.2270 O.2    61  LYS61      -0.2718
     23  CB        -7.1950   32.2190    0.7040 C.3    61  LYS61       0.0285
     24  CG        -6.5030   33.5730    0.7420 C.3    61  LYS61       0.0035
     25  CD        -7.2970   34.5960    1.5260 C.3    61  LYS61       0.0206
     26  CE        -6.4650   35.8430    1.7790 C.3    61  LYS61       0.1093
     27  NZ        -7.2810   36.9340    2.3730 N.3    61  LYS61      -0.1314
     28  N         -5.4560   32.2490   -1.8560 N.am   62  LYS62      -0.1966
     29  CA        -4.4090   32.8450   -2.6710 C.3    62  LYS62       0.1728
     30  C         -4.0620   34.2290   -2.1410 C.2    62  LYS62       0.2616
     31  O         -4.9140   35.1140   -2.0990 O.2    62  LYS62      -0.2715
     32  CB        -4.8650   32.9510   -4.1290 C.3    62  LYS62       0.0311
     33  CG        -3.7500   33.2910   -5.1090 C.3    62  LYS62       0.0038
     34  CD        -4.3090   33.7430   -6.4490 C.3    62  LYS62       0.0206
     35  CE        -3.6370   35.0200   -6.9260 C.3    62  LYS62       0.1093
     36  NZ        -2.4270   34.7280   -7.7430 N.3    62  LYS62      -0.1314
     37  N         -2.8110   34.4100   -1.7310 N.am   63  VAL63      -0.1963
     38  CA        -2.3600   35.6960   -1.2130 C.3    63  VAL63       0.1727
     39  C         -1.5490   36.4300   -2.2740 C.2    63  VAL63       0.2616
     40  O         -0.6000   35.8790   -2.8300 O.2    63  VAL63      -0.2715
     41  CB        -1.4880   35.5190    0.0490 C.3    63  VAL63       0.0290
     42  CG1       -0.9670   36.8690    0.5130 C.3    63  VAL63       0.0023
     43  CG2       -2.2980   34.8560    1.1520 C.3    63  VAL63       0.0023
     44  N         -1.9330   37.6710   -2.5560 N.am   64  ALA64      -0.1977
     45  CA        -1.2370   38.4830   -3.5490 C.3    64  ALA64       0.1597
     46  C          0.0790   38.9680   -2.9510 C.2    64  ALA64       0.2287
     47  O          0.2840   40.1700   -2.7560 O.2    64  ALA64      -0.2864
     48  CB        -2.1060   39.6660   -3.9500 C.3    64  ALA64       0.0319
     49  N          2.0720   41.8440   -4.5790 N.3    67  THR67      -0.1218
     50  CA         1.4890   43.1550   -4.3120 C.3    67  THR67       0.1862
     51  C          1.8940   43.6410   -2.9240 C.2    67  THR67       0.2287
     52  O          2.1840   44.8220   -2.7270 O.2    67  THR67      -0.2866
     53  CB        -0.0490   43.0950   -4.3840 C.3    67  THR67       0.1770
     54  OG1       -0.4440   42.5560   -5.6500 O.3    67  THR67      -0.2211
     55  CG2       -0.6490   44.4790   -4.2200 C.3    67  THR67       0.0375
     56  N          3.9640   47.0900   -2.0910 N.3    71  GLU71      -0.1245
     57  CA         3.4890   48.1300   -1.1870 C.3    71  GLU71       0.1567
     58  C          4.5740   48.4330   -0.1590 C.2    71  GLU71       0.2260
     59  O          4.8290   49.5920    0.1670 O.2    71  GLU71      -0.2867
     60  CB         2.2180   47.6750   -0.4750 C.3    71  GLU71       0.0388
     61  CG         1.7070   48.6660    0.5560 C.3    71  GLU71       0.1160
     62  CD         0.6080   48.0840    1.4170 C.2    71  GLU71       0.3649
     63  OE1        0.6810   46.8790    1.7380 O.co2  71  GLU71      -0.2457
     64  OE2       -0.3300   48.8280    1.7710 O.co2  71  GLU71      -0.2457
     65  N         -3.4510   48.9640   -6.9710 N.3    92  HIS92      -0.1226
     66  CA        -4.5290   49.9280   -6.7710 C.3    92  HIS92       0.1752
     67  C         -5.2450   49.7450   -5.4380 C.2    92  HIS92       0.2596
     68  O         -6.3590   50.2360   -5.2530 O.2    92  HIS92      -0.2718
     69  CB        -5.5440   49.8180   -7.9130 C.3    92  HIS92       0.0759
     70  CG        -4.9610   50.0870   -9.2640 C.ar   92  HIS92       0.0818
     71  ND1       -5.0410   51.3190   -9.8760 N.ar   92  HIS92      -0.2268
     72  CD2       -4.2700   49.2900  -10.1120 C.ar   92  HIS92       0.1154
     73  CE1       -4.4240   51.2700  -11.0430 C.ar   92  HIS92       0.1986
     74  NE2       -3.9460   50.0500  -11.2100 N.ar   92  HIS92      -0.2212
     75  N         -4.6020   49.0450   -4.5100 N.am   93  ILE93      -0.1966
     76  CA        -5.1950   48.8000   -3.2010 C.3    93  ILE93       0.1727
     77  C         -5.3400   50.0690   -2.3600 C.2    93  ILE93       0.2616
     78  O         -6.0560   50.0710   -1.3620 O.2    93  ILE93      -0.2715
     79  CB        -4.3660   47.7730   -2.4040 C.3    93  ILE93       0.0290
     80  CG1       -2.9410   48.2980   -2.1950 C.3    93  ILE93       0.0022
     81  CG2       -4.3490   46.4390   -3.1430 C.3    93  ILE93       0.0023
     82  CD1       -2.1020   47.4470   -1.2620 C.3    93  ILE93       0.0001
     83  N         -4.6710   51.1440   -2.7730 N.am   94  TRP94      -0.1974
     84  CA        -4.7180   52.4140   -2.0480 C.3    94  TRP94       0.1640
     85  C         -5.4880   53.4960   -2.8000 C.2    94  TRP94       0.2290
     86  O         -5.6730   54.6030   -2.2950 O.2    94  TRP94      -0.2864
     87  CB        -3.2940   52.9170   -1.7730 C.3    94  TRP94       0.0576
     88  CG        -2.7120   52.3940   -0.4950 C.ar   94  TRP94       0.0006
     89  CD1       -1.8750   51.3250   -0.3510 C.ar   94  TRP94       0.0946
     90  CD2       -2.9570   52.8920    0.8260 C.ar   94  TRP94       0.0152
     91  NE1       -1.5860   51.1230    0.9780 N.ar   94  TRP94      -0.2442
     92  CE2       -2.2380   52.0700    1.7230 C.ar   94  TRP94       0.0810
     93  CE3       -3.7190   53.9510    1.3400 C.ar   94  TRP94       0.0012
     94  CZ2       -2.2560   52.2750    3.1080 C.ar   94  TRP94       0.0191
     95  CZ3       -3.7370   54.1550    2.7200 C.ar   94  TRP94       0.0001
     96  CH2       -3.0090   53.3190    3.5860 C.ar   94  TRP94       0.0015
     97  N         -8.5800   54.0050   -3.3530 N.3    96  GLN96      -0.1231
     98  CA        -9.7680   54.5080   -2.6730 C.3    96  GLN96       0.1698
     99  C         -9.5300   55.6810   -1.7310 C.2    96  GLN96       0.2592
    100  O        -10.4520   56.4510   -1.4570 O.2    96  GLN96      -0.2718
    101  CB       -10.4410   53.3710   -1.9060 C.3    96  GLN96       0.0381
    102  CG        -9.7870   52.0240   -2.1380 C.3    96  GLN96       0.0905
    103  CD       -10.6890   51.0590   -2.8700 C.2    96  GLN96       0.2608
    104  OE1      -10.2860   49.9390   -3.1910 O.2    96  GLN96      -0.2717
    105  NE2      -11.9200   51.4840   -3.1390 N.am   96  GLN96      -0.0878
    106  N         -8.3050   55.8240   -1.2340 N.am   97  TRP97      -0.1976
    107  CA        -8.0000   56.9150   -0.3150 C.3    97  TRP97       0.1640
    108  C         -7.0980   57.9710   -0.9300 C.2    97  TRP97       0.2290
    109  O         -6.7030   58.9260   -0.2620 O.2    97  TRP97      -0.2864
    110  CB        -7.3780   56.3600    0.9690 C.3    97  TRP97       0.0576
    111  CG        -8.2670   55.3580    1.6230 C.ar   97  TRP97       0.0006
    112  CD1       -9.2370   55.6050    2.5510 C.ar   97  TRP97       0.0946
    113  CD2       -8.3220   53.9540    1.3470 C.ar   97  TRP97       0.0152
    114  NE1       -9.8980   54.4400    2.8690 N.ar   97  TRP97      -0.2442
    115  CE2       -9.3560   53.4120    2.1440 C.ar   97  TRP97       0.0810
    116  CE3       -7.6000   53.1000    0.5030 C.ar   97  TRP97       0.0012
    117  CZ2       -9.6860   52.0520    2.1200 C.ar   97  TRP97       0.0191
    118  CZ3       -7.9280   51.7490    0.4800 C.ar   97  TRP97       0.0001
    119  CH2       -8.9630   51.2390    1.2840 C.ar   97  TRP97       0.0015
    120  N          2.7180   57.3500    6.0870 N.3   108  TYR108     -0.1241
    121  CA         3.5350   56.2450    5.6100 C.3   108  TYR108      0.1605
    122  C          4.8890   56.6900    5.0610 C.2   108  TYR108      0.2264
    123  O          5.6870   57.2920    5.7790 O.2   108  TYR108     -0.2867
    124  CB         2.7580   55.4650    4.5490 C.3   108  TYR108      0.0534
    125  CG         1.6180   54.6570    5.1270 C.ar  108  TYR108     -0.0201
    126  CD1        0.3670   55.2370    5.3510 C.ar  108  TYR108     -0.0009
    127  CD2        1.7960   53.3220    5.4810 C.ar  108  TYR108     -0.0009
    128  CE1       -0.6770   54.5050    5.9160 C.ar  108  TYR108      0.0417
    129  CE2        0.7580   52.5800    6.0460 C.ar  108  TYR108      0.0417
    130  CZ        -0.4730   53.1780    6.2620 C.ar  108  TYR108      0.1957
    131  OH        -1.4940   52.4470    6.8300 O.3   108  TYR108     -0.2866
    132  N         -5.3250   58.6530    5.8240 N.3   158  LEU158     -0.1245
    133  CA        -5.7410   57.5420    6.6690 C.3   158  LEU158      0.1561
    134  C         -4.5970   57.2110    7.6170 C.2   158  LEU158      0.2260
    135  O         -3.5220   56.8050    7.1830 O.2   158  LEU158     -0.2867
    136  CB        -6.0750   56.3180    5.8120 C.3   158  LEU158      0.0270
    137  CG        -6.6450   55.0900    6.5300 C.3   158  LEU158      0.0019
    138  CD1       -7.6710   54.4110    5.6400 C.3   158  LEU158      0.0001
    139  CD2       -5.5190   54.1220    6.8780 C.3   158  LEU158      0.0001
    140  N         -2.2450   51.8100   10.0330 N.3   161  CYS161     -0.1235
    141  CA        -2.7790   50.6790   10.7810 C.3   161  CYS161      0.1677
    142  C         -1.6070   49.9940   11.4750 C.2   161  CYS161      0.2270
    143  O         -1.6530   49.7320   12.6790 O.2   161  CYS161     -0.2867
    144  CB        -3.4830   49.7070    9.8400 C.3   161  CYS161      0.0956
    145  SG        -4.6850   50.4920    8.7140 S.3   161  CYS161     -0.0801
    146  N         -7.6640   44.5680    9.7780 N.3   184  ASP184     -0.1239
    147  CA        -8.7550   43.9640    9.0100 C.3   184  ASP184      0.1674
    148  C         -8.2410   42.5570    8.7190 C.2   184  ASP184      0.2266
    149  O         -7.4680   42.3460    7.7850 O.2   184  ASP184     -0.2867
    150  CB        -8.9680   44.7520    7.7090 C.3   184  ASP184      0.1410
    151  CG        -9.9320   44.0700    6.7420 C.2   184  ASP184      0.3668
    152  OD1      -10.3050   42.8930    6.9550 O.co2 184  ASP184     -0.2456
    153  OD2      -10.3130   44.7280    5.7500 O.co2 184  ASP184     -0.2456
    154  N         -8.6260   41.2030    4.8540 N.3   187  LEU187     -0.1231
    155  CA        -7.8050   41.8500    3.8400 C.3   187  LEU187      0.1693
    156  C         -6.3850   42.2250    4.2670 C.2   187  LEU187      0.2592
    157  O         -5.4130   41.6230    3.8150 O.2   187  LEU187     -0.2718
    158  CB        -8.5220   43.1010    3.3240 C.3   187  LEU187      0.0284
    159  CG        -9.2890   43.0290    1.9970 C.3   187  LEU187      0.0019
    160  CD1       -9.4700   41.5870    1.5470 C.3   187  LEU187      0.0001
    161  CD2      -10.6360   43.7050    2.1760 C.3   187  LEU187      0.0001
    162  N         -6.2730   43.2250    5.1350 N.am  188  GLY188     -0.1957
    163  CA        -4.9710   43.6920    5.5820 C.3   188  GLY188      0.1869
    164  C         -4.0220   42.7340    6.2840 C.2   188  GLY188      0.2309
    165  O         -2.8480   42.6610    5.9270 O.2   188  GLY188     -0.2863
    166  N         -1.6990   40.4920    4.3780 N.3   191  PHE191     -0.1227
    167  CA        -0.7480   41.3720    3.7070 C.3   191  PHE191      0.1736
    168  C          0.3120   41.8600    4.6900 C.2   191  PHE191      0.2595
    169  O          1.5050   41.8240    4.3990 O.2   191  PHE191     -0.2718
    170  CB        -1.4730   42.5940    3.1370 C.3   191  PHE191      0.0547
    171  CG        -1.7600   42.5130    1.6650 C.ar  191  PHE191     -0.0202
    172  CD1       -2.3540   41.3800    1.1150 C.ar  191  PHE191     -0.0042
    173  CD2       -1.4670   43.5880    0.8300 C.ar  191  PHE191     -0.0042
    174  CE1       -2.6560   41.3190   -0.2430 C.ar  191  PHE191     -0.0003
    175  CE2       -1.7650   43.5400   -0.5280 C.ar  191  PHE191     -0.0003
    176  CZ        -2.3610   42.4030   -1.0660 C.ar  191  PHE191     -0.0000
    177  N         -0.1430   42.3220    5.8510 N.am  192  ASN192     -0.1974
    178  CA         0.7360   42.8600    6.8880 C.3   192  ASN192      0.1688
    179  C          1.7400   41.8670    7.4680 C.2   192  ASN192      0.2292
    180  O          2.9390   42.1360    7.4920 O.2   192  ASN192     -0.2864
    181  CB        -0.0990   43.4440    8.0340 C.3   192  ASN192      0.1181
    182  CG        -1.0090   44.5710    7.5840 C.2   192  ASN192      0.2629
    183  OD1       -2.1250   44.7160    8.0840 O.2   192  ASN192     -0.2716
    184  ND2       -0.5380   45.3750    6.6370 N.am  192  ASN192     -0.0877
    185  N        -14.9140   42.2820    9.4290 N.3   224  TYR224     -0.1241
    186  CA       -16.1340   42.9140    8.9240 C.3   224  TYR224      0.1605
    187  C        -17.2380   41.8870    8.6570 C.2   224  TYR224      0.2264
    188  O        -16.9790   40.7990    8.1420 O.2   224  TYR224     -0.2867
    189  CB       -15.8190   43.7100    7.6560 C.3   224  TYR224      0.0534
    190  CG       -15.0200   44.9690    7.9260 C.ar  224  TYR224     -0.0201
    191  CD1      -15.6590   46.1720    8.2320 C.ar  224  TYR224     -0.0009
    192  CD2      -13.6230   44.9590    7.8860 C.ar  224  TYR224     -0.0009
    193  CE1      -14.9300   47.3350    8.4920 C.ar  224  TYR224      0.0417
    194  CE2      -12.8840   46.1160    8.1440 C.ar  224  TYR224      0.0417
    195  CZ       -13.5450   47.2990    8.4450 C.ar  224  TYR224      0.1957
    196  OH       -12.8270   48.4490    8.6890 O.3   224  TYR224     -0.2866
    197  N         -8.6260   31.6640   -4.7220 N.3   272  LYS272     -0.1231
    198  CA        -8.7730   33.0580   -4.3330 C.3   272  LYS272      0.1693
    199  C        -10.1360   33.2800   -3.6900 C.2   272  LYS272      0.2592
    200  O        -11.1050   32.5960   -4.0180 O.2   272  LYS272     -0.2718
    201  CB        -8.6270   33.9650   -5.5580 C.3   272  LYS272      0.0285
    202  CG        -8.9040   35.4360   -5.2820 C.3   272  LYS272      0.0035
    203  CD        -9.2990   36.1740   -6.5520 C.3   272  LYS272      0.0206
    204  CE        -8.1000   36.8440   -7.2030 C.3   272  LYS272      0.1093
    205  NZ        -8.4950   37.7000   -8.3560 N.3   272  LYS272     -0.1314
    206  N        -10.2000   34.2370   -2.7720 N.am  273  LEU273     -0.1966
    207  CA       -11.4370   34.5630   -2.0750 C.3   273  LEU273      0.1728
    208  C        -11.6780   36.0670   -2.1660 C.2   273  LEU273      0.2616
    209  O        -10.7660   36.8650   -1.9530 O.2   273  LEU273     -0.2715
    210  CB       -11.3420   34.1420   -0.6040 C.3   273  LEU273      0.0311
    211  CG       -12.1340   32.9340   -0.0910 C.3   273  LEU273      0.0022
    212  CD1      -12.8660   32.2420   -1.2290 C.3   273  LEU273      0.0001
    213  CD2      -11.1810   31.9710    0.5920 C.3   273  LEU273      0.0001
    214  N        -12.9070   36.4490   -2.4890 N.am  274  LEU274     -0.1963
    215  CA       -13.2570   37.8580   -2.6090 C.3   274  LEU274      0.1728
    216  C        -13.7190   38.4260   -1.2750 C.2   274  LEU274      0.2616
    217  O        -14.5000   37.8020   -0.5580 O.2   274  LEU274     -0.2715
    218  CB       -14.3710   38.0420   -3.6410 C.3   274  LEU274      0.0311
    219  CG       -13.9950   37.9760   -5.1220 C.3   274  LEU274      0.0022
    220  CD1      -15.2350   38.2440   -5.9640 C.3   274  LEU274      0.0001
    221  CD2      -12.9070   38.9920   -5.4310 C.3   274  LEU274      0.0001
    222  N        -13.2270   39.6150   -0.9490 N.am  275  PHE275     -0.1974
    223  CA       -13.5970   40.2950    0.2860 C.3   275  PHE275      0.1639
    224  C        -13.8000   41.7660   -0.0510 C.2   275  PHE275      0.2290
    225  O        -12.8790   42.4310   -0.5250 O.2   275  PHE275     -0.2864
    226  CB       -12.4890   40.1620    1.3350 C.3   275  PHE275      0.0560
    227  CG       -12.3330   38.7740    1.8830 C.ar  275  PHE275     -0.0200
    228  CD1      -13.2890   38.2380    2.7380 C.ar  275  PHE275     -0.0042
    229  CD2      -11.2270   38.0020    1.5470 C.ar  275  PHE275     -0.0042
    230  CE1      -13.1460   36.9530    3.2540 C.ar  275  PHE275     -0.0003
    231  CE2      -11.0740   36.7130    2.0580 C.ar  275  PHE275     -0.0003
    232  CZ       -12.0360   36.1880    2.9130 C.ar  275  PHE275     -0.0000
    233  N        -14.0190   45.6940    0.3440 N.3   277  VAL277     -0.1231
    234  CA       -13.2320   46.5930    1.1740 C.3   277  VAL277      0.1692
    235  C        -14.0590   47.7270    1.7670 C.2   277  VAL277      0.2591
    236  O        -14.8420   48.3730    1.0720 O.2   277  VAL277     -0.2718
    237  CB       -12.0190   47.1800    0.3810 C.3   277  VAL277      0.0266
    238  CG1      -12.0260   46.6570   -1.0410 C.3   277  VAL277      0.0020
    239  CG2      -12.0450   48.7040    0.3940 C.3   277  VAL277      0.0020
    240  N        -13.8850   47.9500    3.0650 N.am  278  ALA278     -0.1980
    241  CA       -14.5850   49.0190    3.7610 C.3   278  ALA278      0.1597
    242  C        -13.6740   50.2380    3.6960 C.2   278  ALA278      0.2287
    243  O        -12.5030   50.1630    4.0700 O.2   278  ALA278     -0.2864
    244  CB       -14.8430   48.6240    5.2080 C.3   278  ALA278      0.0319
@<TRIPOS>BOND
     1    74    73   ar
     2    74    72   ar
     3    73    71   ar
     4    72    70   ar
     5    71    70   ar
     6    70    69    1
     7   205   204    1
     8    69    66    1
     9    36    35    1
    10   204   203    1
    11    65    66    1
    12    35    34    1
    13    66    67    1
    14   203   202    1
    15    34    33    1
    16   220   219    1
    17    54    53    1
    18   201   202    1
    19   201   198    1
    20    67    68    2
    21    67    75   am
    22   221   219    1
    23   219   218    1
    24    33    32    1
    25   197   198    1
    26    49    50    1
    27    75    76    1
    28    53    50    1
    29    53    55    1
    30   198   199    1
    31    50    51    1
    32    32    29    1
    33   200   199    2
    34    48    45    1
    35   199   206   am
    36   218   215    1
    37    45    46    1
    38    45    44    1
    39    97    98    1
    40    76    79    1
    41    76    77    1
    42   104   103    2
    43    81    79    1
    44   105   103   am
    45    46    47    2
    46    51    52    2
    47   103   102    1
    48    40    39    2
    49    85    86    2
    50    85    84    1
    51    83    77   am
    52    83    84    1
    53   206   207    1
    54    98   101    1
    55    98    99    1
    56    29    30    1
    57    29    28    1
    58   215   214    1
    59   215   216    1
    60    44    39   am
    61   214   208   am
    62    79    80    1
    63    77    78    2
    64    39    38    1
    65    80    82    1
    66   208   207    1
    67   208   209    2
    68    30    31    2
    69    30    37   am
    70   102   101    1
    71    56    57    1
    72   207   210    1
    73    84    87    1
    74    28    21   am
    75    87    88    1
    76    37    38    1
    77    99   100    2
    78    99   106   am
    79   216   222   am
    80   216   217    2
    81   106   107    1
    82   212   211    1
    83    38    41    1
    84    57    60    1
    85    57    58    1
    86   176   175   ar
    87   176   174   ar
    88   238   237    1
    89   222   223    1
    90   108   107    1
    91   108   109    2
    92    21    22    2
    93    21    20    1
    94   210   211    1
    95   175   173   ar
    96   225   224    2
    97    88    89   ar
    98    88    90   ar
    99    60    61    1
   100    89    91   ar
   101   107   110    1
   102   174   172   ar
   103    58    59    2
   104   211   213    1
   105   224   223    1
   106    41    42    1
   107    41    43    1
   108    20    23    1
   109    20    19    1
   110   223   226    1
   111   233   234    1
   112   237   239    1
   113   237   234    1
   114   118   116   ar
   115   118   119   ar
   116   116   113   ar
   117    61    62    1
   118    23    24    1
   119    24    25    1
   120    90    93   ar
   121    90    92   ar
   122   173   171   ar
   123   110   111    1
   124    91    92   ar
   125   236   235    2
   126   172   171   ar
   127   234   235    1
   128   119   117   ar
   129   226   227    1
   130    93    95   ar
   131   113   111   ar
   132   113   115   ar
   133    62    63   ar
   134    62    64   ar
   135    25    26    1
   136   160   159    1
   137   229   227   ar
   138   229   231   ar
   139   111   112   ar
   140   171   170    1
   141    92    94   ar
   142   235   240   am
   143    26    27    1
   144   227   228   ar
   145   159   161    1
   146   159   158    1
   147   231   232   ar
   148   117   115   ar
   149   115   114   ar
   150   112   114   ar
   151    95    96   ar
   152   228   230   ar
   153   232   230   ar
   154   240   241    1
   155    94    96   ar
   156   170   167    1
   157   158   155    1
   158   242   241    1
   159   242   243    2
   160   167   166    1
   161   167   168    1
   162   241   244    1
   163   157   156    2
   164   155   156    1
   165   155   154    1
   166   156   162   am
   167   169   168    2
   168   124   125    1
   169   124   121    1
   170   168   177   am
   171   122   121    1
   172   122   123    2
   173   125   126   ar
   174   125   127   ar
   175   162   163    1
   176   126   128   ar
   177   127   129   ar
   178   163   164    1
   179   121   120    1
   180   138   137    1
   181   153   151   ar
   182   136   137    1
   183   136   133    1
   184   132   133    1
   185   177   178    1
   186   128   130   ar
   187   165   164    2
   188   129   130   ar
   189   130   131    1
   190   137   139    1
   191   184   182   am
   192   133   134    1
   193   151   152   ar
   194   151   150    1
   195   178   179    1
   196   178   181    1
   197    14    15    2
   198    14    13    1
   199    10     9    1
   200   135   134    2
   201   179   180    2
   202   182   181    1
   203   182   183    2
   204    11     9    1
   205   189   190    1
   206   189   186    1
   207    13    16    1
   208    13    12    1
   209   150   147    1
   210   149   148    2
   211    16    18    1
   212    16    17    1
   213   192   190   ar
   214   192   194   ar
   215   190   191   ar
   216     4     3    2
   217     9     8    2
   218   188   187    2
   219   194   195   ar
   220   191   193   ar
   221   195   193   ar
   222   195   196    1
   223   187   186    1
   224   145   144    1
   225   148   147    1
   226   186   185    1
   227    12     3   am
   228   147   146    1
   229     3     2    1
   230     8     7    1
   231     6     7    1
   232     6     5    1
   233   144   141    1
   234   140   141    1
   235     2     5    1
   236     2     1    1
   237   141   142    1
   238   142   143    2
