@<TRIPOS>MOLECULE
tmp/1b02A00.pdb
 153 146 0 0 0
SMALL
GASTEIGER

@<TRIPOS>ATOM
      1  N        -16.6980   54.5730   11.4590 N.3    28  ARG28      -0.1231
      2  CA       -16.0920   55.4080   10.4270 C.3    28  ARG28       0.1694
      3  C        -16.1250   54.8020    9.0260 C.2    28  ARG28       0.2592
      4  O        -16.2120   55.5220    8.0290 O.2    28  ARG28      -0.2718
      5  CB       -14.6390   55.7120   10.8060 C.3    28  ARG28       0.0321
      6  CG       -13.8280   56.3840    9.7090 C.3    28  ARG28       0.0489
      7  CD       -12.3370   56.1530    9.8960 C.3    28  ARG28       0.2205
      8  NE       -11.9110   54.8670    9.3530 N.pl3  28  ARG28      -0.0865
      9  CZ       -11.7520   54.6200    8.0570 C.cat  28  ARG28       0.5346
     10  NH1      -11.9830   55.5720    7.1640 N.pl3  28  ARG28       0.1354
     11  NH2      -11.3580   53.4200    7.6530 N.pl3  28  ARG28       0.1354
     12  N        -16.0620   53.4780    8.9550 N.am   29  THR29      -0.1953
     13  CA       -16.0430   52.7840    7.6780 C.3    29  THR29       0.1897
     14  C        -17.4000   52.5610    7.0110 C.2    29  THR29       0.2313
     15  O        -18.3990   52.2790    7.6720 O.2    29  THR29      -0.2863
     16  CB       -15.3500   51.4240    7.8310 C.3    29  THR29       0.1794
     17  OG1      -15.9390   50.7150    8.9280 O.3    29  THR29      -0.2208
     18  CG2      -13.8640   51.6140    8.1010 C.3    29  THR29       0.0378
     19  N          3.9640   47.0900   -2.0910 N.3    71  GLU71      -0.1245
     20  CA         3.4890   48.1300   -1.1870 C.3    71  GLU71       0.1567
     21  C          4.5740   48.4330   -0.1590 C.2    71  GLU71       0.2260
     22  O          4.8290   49.5920    0.1670 O.2    71  GLU71      -0.2867
     23  CB         2.2180   47.6750   -0.4750 C.3    71  GLU71       0.0388
     24  CG         1.7070   48.6660    0.5560 C.3    71  GLU71       0.1160
     25  CD         0.6080   48.0840    1.4170 C.2    71  GLU71       0.3649
     26  OE1        0.6810   46.8790    1.7380 O.co2  71  GLU71      -0.2457
     27  OE2       -0.3300   48.8280    1.7710 O.co2  71  GLU71      -0.2457
     28  N         -4.6710   51.1440   -2.7730 N.3    94  TRP94      -0.1241
     29  CA        -4.7180   52.4140   -2.0480 C.3    94  TRP94       0.1605
     30  C         -5.4880   53.4960   -2.8000 C.2    94  TRP94       0.2264
     31  O         -5.6730   54.6030   -2.2950 O.2    94  TRP94      -0.2867
     32  CB        -3.2940   52.9170   -1.7730 C.3    94  TRP94       0.0550
     33  CG        -2.7120   52.3940   -0.4950 C.ar   94  TRP94       0.0003
     34  CD1       -1.8750   51.3250   -0.3510 C.ar   94  TRP94       0.0946
     35  CD2       -2.9570   52.8920    0.8260 C.ar   94  TRP94       0.0152
     36  NE1       -1.5860   51.1230    0.9780 N.ar   94  TRP94      -0.2442
     37  CE2       -2.2380   52.0700    1.7230 C.ar   94  TRP94       0.0810
     38  CE3       -3.7190   53.9510    1.3400 C.ar   94  TRP94       0.0012
     39  CZ2       -2.2560   52.2750    3.1080 C.ar   94  TRP94       0.0191
     40  CZ3       -3.7370   54.1550    2.7200 C.ar   94  TRP94       0.0001
     41  CH2       -3.0090   53.3190    3.5860 C.ar   94  TRP94       0.0015
     42  N          2.7180   57.3500    6.0870 N.3   108  TYR108     -0.1241
     43  CA         3.5350   56.2450    5.6100 C.3   108  TYR108      0.1605
     44  C          4.8890   56.6900    5.0610 C.2   108  TYR108      0.2264
     45  O          5.6870   57.2920    5.7790 O.2   108  TYR108     -0.2867
     46  CB         2.7580   55.4650    4.5490 C.3   108  TYR108      0.0534
     47  CG         1.6180   54.6570    5.1270 C.ar  108  TYR108     -0.0201
     48  CD1        0.3670   55.2370    5.3510 C.ar  108  TYR108     -0.0009
     49  CD2        1.7960   53.3220    5.4810 C.ar  108  TYR108     -0.0009
     50  CE1       -0.6770   54.5050    5.9160 C.ar  108  TYR108      0.0417
     51  CE2        0.7580   52.5800    6.0460 C.ar  108  TYR108      0.0417
     52  CZ        -0.4730   53.1780    6.2620 C.ar  108  TYR108      0.1957
     53  OH        -1.4940   52.4470    6.8300 O.3   108  TYR108     -0.2866
     54  N         -5.3250   58.6530    5.8240 N.3   158  LEU158     -0.1231
     55  CA        -5.7410   57.5420    6.6690 C.3   158  LEU158      0.1693
     56  C         -4.5970   57.2110    7.6170 C.2   158  LEU158      0.2592
     57  O         -3.5220   56.8050    7.1830 O.2   158  LEU158     -0.2718
     58  CB        -6.0750   56.3180    5.8120 C.3   158  LEU158      0.0284
     59  CG        -6.6450   55.0900    6.5300 C.3   158  LEU158      0.0019
     60  CD1       -7.6710   54.4110    5.6400 C.3   158  LEU158      0.0001
     61  CD2       -5.5190   54.1220    6.8780 C.3   158  LEU158      0.0001
     62  N         -4.8270   57.3990    8.9110 N.am  159  THR159     -0.1953
     63  CA        -3.8070   57.1140    9.9090 C.3   159  THR159      0.1897
     64  C         -3.3550   55.6630    9.7560 C.2   159  THR159      0.2313
     65  O         -4.1730   54.7640    9.5640 O.2   159  THR159     -0.2863
     66  CB        -4.3490   57.3660   11.3230 C.3   159  THR159      0.1794
     67  OG1       -5.5250   56.5790   11.5390 O.3   159  THR159     -0.2208
     68  CG2       -4.7040   58.8360   11.4840 C.3   159  THR159      0.0378
     69  N         -2.2450   51.8100   10.0330 N.3   161  CYS161     -0.1221
     70  CA        -2.7790   50.6790   10.7810 C.3   161  CYS161      0.1808
     71  C         -1.6070   49.9940   11.4750 C.2   161  CYS161      0.2601
     72  O         -1.6530   49.7320   12.6790 O.2   161  CYS161     -0.2717
     73  CB        -3.4830   49.7070    9.8400 C.3   161  CYS161      0.0970
     74  SG        -4.6850   50.4920    8.7140 S.3   161  CYS161     -0.0800
     75  N         -0.5710   49.6890   10.6970 N.am  162  VAL162     -0.1979
     76  CA         0.6580   49.0950   11.2200 C.3   162  VAL162      0.1595
     77  C          1.5650   50.3180   11.2510 C.2   162  VAL162      0.2287
     78  O          2.1790   50.6800   10.2480 O.2   162  VAL162     -0.2864
     79  CB         1.2320   48.0310   10.2660 C.3   162  VAL162      0.0276
     80  CG1        2.4630   47.3830   10.8870 C.3   162  VAL162      0.0022
     81  CG2        0.1760   46.9760    9.9770 C.3   162  VAL162      0.0022
     82  N         -2.4910   48.9240   15.2090 N.3   181  ARG181     -0.1231
     83  CA        -3.5030   49.4740   16.1040 C.3   181  ARG181      0.1694
     84  C         -4.8770   48.9590   15.6930 C.2   181  ARG181      0.2593
     85  O         -5.7610   48.7600   16.5310 O.2   181  ARG181     -0.2718
     86  CB        -3.4930   51.0020   16.0380 C.3   181  ARG181      0.0321
     87  CG        -3.7500   51.5530   14.6550 C.3   181  ARG181      0.0489
     88  CD        -4.4370   52.9030   14.6980 C.3   181  ARG181      0.2205
     89  NE        -4.6520   53.4210   13.3500 N.pl3 181  ARG181     -0.0865
     90  CZ        -5.7530   53.2130   12.6340 C.cat 181  ARG181      0.5346
     91  NH1       -6.7510   52.4990   13.1360 N.pl3 181  ARG181      0.1354
     92  NH2       -5.8550   53.7130   11.4110 N.pl3 181  ARG181      0.1354
     93  N         -5.0360   48.7410   14.3900 N.am  182  SER182     -0.1938
     94  CA        -6.2820   48.2590   13.8050 C.3   182  SER182      0.2055
     95  C         -5.9400   47.2590   12.7040 C.2   182  SER182      0.2643
     96  O         -5.1090   47.5460   11.8420 O.2   182  SER182     -0.2714
     97  CB        -7.0590   49.4380   13.2110 C.3   182  SER182      0.2130
     98  OG        -8.3670   49.0570   12.8310 O.3   182  SER182     -0.2179
     99  N         -6.5760   46.0920   12.7230 N.am  183  ASN183     -0.1957
    100  CA        -6.2940   45.0800   11.7090 C.3   183  ASN183      0.1819
    101  C         -7.5240   44.4170   11.0950 C.2   183  ASN183      0.2621
    102  O         -8.3180   43.7900   11.7980 O.2   183  ASN183     -0.2715
    103  CB        -5.3870   43.9910   12.2920 C.3   183  ASN183      0.1195
    104  CG        -4.1770   43.7000   11.4120 C.2   183  ASN183      0.2630
    105  OD1       -3.5990   42.6180   11.4760 O.2   183  ASN183     -0.2716
    106  ND2       -3.7900   44.6680   10.5930 N.am  183  ASN183     -0.0877
    107  N         -7.6640   44.5680    9.7780 N.am  184  ASP184     -0.1971
    108  CA        -8.7550   43.9640    9.0100 C.3   184  ASP184      0.1709
    109  C         -8.2410   42.5570    8.7190 C.2   184  ASP184      0.2293
    110  O         -7.4680   42.3460    7.7850 O.2   184  ASP184     -0.2864
    111  CB        -8.9680   44.7520    7.7090 C.3   184  ASP184      0.1436
    112  CG        -9.9320   44.0700    6.7420 C.2   184  ASP184      0.3671
    113  OD1      -10.3050   42.8930    6.9550 O.co2 184  ASP184     -0.2456
    114  OD2      -10.3130   44.7280    5.7500 O.co2 184  ASP184     -0.2456
    115  N         -6.2730   43.2250    5.1350 N.3   188  GLY188     -0.1225
    116  CA        -4.9710   43.6920    5.5820 C.3   188  GLY188      0.1811
    117  C         -4.0220   42.7340    6.2840 C.2   188  GLY188      0.2280
    118  O         -2.8480   42.6610    5.9270 O.2   188  GLY188     -0.2866
    119  N         -0.1430   42.3220    5.8510 N.3   192  ASN192     -0.1240
    120  CA         0.7360   42.8600    6.8880 C.3   192  ASN192      0.1653
    121  C          1.7400   41.8670    7.4680 C.2   192  ASN192      0.2266
    122  O          2.9390   42.1360    7.4920 O.2   192  ASN192     -0.2867
    123  CB        -0.0990   43.4440    8.0340 C.3   192  ASN192      0.1155
    124  CG        -1.0090   44.5710    7.5840 C.2   192  ASN192      0.2627
    125  OD1       -2.1250   44.7160    8.0840 O.2   192  ASN192     -0.2716
    126  ND2       -0.5380   45.3750    6.6370 N.am  192  ASN192     -0.0877
    127  N        -10.3070   42.8970   14.3070 N.3   222  HIS222     -0.1241
    128  CA       -11.6770   42.7220   13.8420 C.3   222  HIS222      0.1621
    129  C        -11.8750   41.9800   12.5230 C.2   222  HIS222      0.2264
    130  O        -10.9290   41.6890   11.7900 O.2   222  HIS222     -0.2867
    131  CB       -12.3310   44.0950   13.7240 C.3   222  HIS222      0.0745
    132  CG       -11.5650   45.0460   12.8560 C.ar  222  HIS222      0.0817
    133  ND1      -10.6200   45.9140   13.3570 N.ar  222  HIS222     -0.2268
    134  CD2      -11.5980   45.2560   11.5180 C.ar  222  HIS222      0.1154
    135  CE1      -10.1040   46.6200   12.3660 C.ar  222  HIS222      0.1986
    136  NE2      -10.6800   46.2390   11.2400 N.ar  222  HIS222     -0.2212
    137  N        -14.9140   42.2820    9.4290 N.3   224  TYR224     -0.1241
    138  CA       -16.1340   42.9140    8.9240 C.3   224  TYR224      0.1605
    139  C        -17.2380   41.8870    8.6570 C.2   224  TYR224      0.2264
    140  O        -16.9790   40.7990    8.1420 O.2   224  TYR224     -0.2867
    141  CB       -15.8190   43.7100    7.6560 C.3   224  TYR224      0.0534
    142  CG       -15.0200   44.9690    7.9260 C.ar  224  TYR224     -0.0201
    143  CD1      -15.6590   46.1720    8.2320 C.ar  224  TYR224     -0.0009
    144  CD2      -13.6230   44.9590    7.8860 C.ar  224  TYR224     -0.0009
    145  CE1      -14.9300   47.3350    8.4920 C.ar  224  TYR224      0.0417
    146  CE2      -12.8840   46.1160    8.1440 C.ar  224  TYR224      0.0417
    147  CZ       -13.5450   47.2990    8.4450 C.ar  224  TYR224      0.1957
    148  OH       -12.8270   48.4490    8.6890 O.3   224  TYR224     -0.2866
    149  N        -13.8850   47.9500    3.0650 N.3   278  ALA278     -0.1245
    150  CA       -14.5850   49.0190    3.7610 C.3   278  ALA278      0.1562
    151  C        -13.6740   50.2380    3.6960 C.2   278  ALA278      0.2260
    152  O        -12.5030   50.1630    4.0700 O.2   278  ALA278     -0.2867
    153  CB       -14.8430   48.6240    5.2080 C.3   278  ALA278      0.0290
@<TRIPOS>BOND
     1    30    31    2
     2    30    29    1
     3    28    29    1
     4    19    20    1
     5    29    32    1
     6    32    33    1
     7    20    23    1
     8    20    21    1
     9    33    34   ar
    10    33    35   ar
    11    23    24    1
    12    34    36   ar
    13    21    22    2
    14    24    25    1
    15    35    38   ar
    16    35    37   ar
    17    36    37   ar
    18    38    40   ar
    19    25    26   ar
    20    25    27   ar
    21    37    39   ar
    22    40    41   ar
    23   149   150    1
    24    39    41   ar
    25   151   150    1
    26   151   152    2
    27   150   153    1
    28    46    47    1
    29    46    43    1
    30    44    43    1
    31    44    45    2
    32    47    48   ar
    33    47    49   ar
    34   115   116    1
    35    48    50   ar
    36    49    51   ar
    37   116   117    1
    38    43    42    1
    39    60    59    1
    40   114   112   ar
    41    58    59    1
    42    58    55    1
    43    54    55    1
    44   119   120    1
    45    50    52   ar
    46   118   117    2
    47    51    52   ar
    48    52    53    1
    49    59    61    1
    50   126   124   am
    51    55    56    1
    52   112   113   ar
    53   112   111    1
    54   120   121    1
    55   120   123    1
    56    14    15    2
    57    14    13    1
    58    10     9    1
    59    57    56    2
    60   121   122    2
    61   124   123    1
    62   124   125    2
    63    56    62   am
    64    11     9    1
    65   141   142    1
    66   141   138    1
    67    13    16    1
    68    13    12    1
    69   111   108    1
    70   110   109    2
    71    16    18    1
    72    16    17    1
    73   144   142   ar
    74   144   146   ar
    75   142   143   ar
    76     4     3    2
    77     9     8    2
    78   140   139    2
    79   146   147   ar
    80   143   145   ar
    81   147   145   ar
    82   147   148    1
    83   139   138    1
    84    74    73    1
    85   109   108    1
    86    62    63    1
    87   138   137    1
    88    12     3   am
    89   108   107    1
    90     3     2    1
    91     8     7    1
    92    65    64    2
    93     6     7    1
    94     6     5    1
    95    64    63    1
    96   107   101   am
    97    73    70    1
    98    63    66    1
    99    81    79    1
   100    69    70    1
   101    78    77    2
   102    79    80    1
   103    79    76    1
   104     2     5    1
   105     2     1    1
   106   106   104   am
   107    75    76    1
   108    75    71   am
   109    70    71    1
   110   101   100    1
   111   101   102    2
   112    76    77    1
   113   136   134   ar
   114   136   135   ar
   115    66    68    1
   116    66    67    1
   117    92    90    1
   118   104   105    2
   119   104   103    1
   120    71    72    2
   121   134   132   ar
   122   100   103    1
   123   100    99    1
   124   130   129    2
   125    96    95    2
   126   135   133   ar
   127   129   128    1
   128    90    91    1
   129    90    89    2
   130    95    99   am
   131    95    94    1
   132    98    97    1
   133   132   133   ar
   134   132   131    1
   135    97    94    1
   136    89    88    1
   137   131   128    1
   138    94    93    1
   139   128   127    1
   140    93    84   am
   141    87    88    1
   142    87    86    1
   143    82    83    1
   144    84    83    1
   145    84    85    2
   146    86    83    1
