@<TRIPOS>MOLECULE
tmp/1b07A00.pdb
 112 112 0 0 0
SMALL
GASTEIGER

@<TRIPOS>ATOM
      1  N          8.2580   21.4780    7.9340 N.3     9  PHE9       -0.1227
      2  CA         7.4330   21.6500    9.1260 C.3     9  PHE9        0.1736
      3  C          6.1550   20.8320    8.9970 C.2     9  PHE9        0.2595
      4  O          5.7450   20.4640    7.8920 O.2     9  PHE9       -0.2718
      5  CB         7.0290   23.1220    9.3130 C.3     9  PHE9        0.0547
      6  CG         8.1720   24.0990    9.2420 C.ar    9  PHE9       -0.0202
      7  CD1        9.0660   24.2280   10.2990 C.ar    9  PHE9       -0.0042
      8  CD2        8.3410   24.9070    8.1220 C.ar    9  PHE9       -0.0042
      9  CE1       10.1120   25.1510   10.2400 C.ar    9  PHE9       -0.0003
     10  CE2        9.3820   25.8310    8.0530 C.ar    9  PHE9       -0.0003
     11  CZ        10.2670   25.9520    9.1130 C.ar    9  PHE9       -0.0000
     12  N          5.5230   20.5610   10.1350 N.am   10  ASP10      -0.1960
     13  CA         4.2650   19.8220   10.1600 C.3    10  ASP10       0.1840
     14  C          3.1570   20.7900    9.7400 C.2    10  ASP10       0.2622
     15  O          3.1060   21.9270   10.2100 O.2    10  ASP10      -0.2715
     16  CB         3.9690   19.2960   11.5730 C.3    10  ASP10       0.1450
     17  CG         5.1000   18.4550   12.1390 C.2    10  ASP10       0.3671
     18  OD1        5.3610   17.3590   11.5990 O.co2  10  ASP10      -0.2456
     19  OD2        5.7300   18.8890   13.1270 O.co2  10  ASP10      -0.2456
     20  N          2.3040   20.3520    8.8220 N.am   11  PHE11      -0.1974
     21  CA         1.1950   21.1730    8.3550 C.3    11  PHE11       0.1639
     22  C         -0.0970   20.3860    8.5390 C.2    11  PHE11       0.2290
     23  O         -0.3440   19.3940    7.8540 O.2    11  PHE11      -0.2864
     24  CB         1.3930   21.5590    6.8880 C.3    11  PHE11       0.0560
     25  CG         0.3060   22.4380    6.3300 C.ar   11  PHE11      -0.0200
     26  CD1        0.0770   23.7130    6.8520 C.ar   11  PHE11      -0.0042
     27  CD2       -0.4810   21.9990    5.2680 C.ar   11  PHE11      -0.0042
     28  CE1       -0.9200   24.5360    6.3240 C.ar   11  PHE11      -0.0003
     29  CE2       -1.4770   22.8130    4.7340 C.ar   11  PHE11      -0.0003
     30  CZ        -1.6960   24.0860    5.2630 C.ar   11  PHE11      -0.0000
     31  N         -5.2070   23.9940    6.9190 N.3    14  ASN14      -0.1225
     32  CA        -6.1780   25.0080    7.3250 C.3    14  ASN14       0.1785
     33  C         -7.5160   24.8780    6.5940 C.2    14  ASN14       0.2597
     34  O         -8.5810   25.0030    7.2020 O.2    14  ASN14      -0.2718
     35  CB        -5.6050   26.4120    7.0830 C.3    14  ASN14       0.1169
     36  CG        -4.3030   26.6630    7.8350 C.2    14  ASN14       0.2627
     37  OD1       -3.7710   25.7750    8.5060 O.2    14  ASN14      -0.2716
     38  ND2       -3.7830   27.8800    7.7160 N.am   14  ASN14      -0.0877
     39  N         -7.4500   24.6390    5.2870 N.am   15  ASP15      -0.1974
     40  CA        -8.6380   24.5060    4.4480 C.3    15  ASP15       0.1709
     41  C         -8.9170   23.0520    4.0600 C.2    15  ASP15       0.2293
     42  O         -8.0470   22.1880    4.1830 O.2    15  ASP15      -0.2864
     43  CB        -8.4650   25.3610    3.1900 C.3    15  ASP15       0.1436
     44  CG        -9.7270   25.4490    2.3620 C.2    15  ASP15       0.3671
     45  OD1      -10.6480   26.1910    2.7640 O.co2  15  ASP15      -0.2456
     46  OD2       -9.7940   24.7780    1.3120 O.co2  15  ASP15      -0.2456
     47  N         -6.6200   21.8120    1.4140 N.3    18  ASP18      -0.1239
     48  CA        -5.2240   21.6930    1.8160 C.3    18  ASP18       0.1674
     49  C         -4.8080   20.2440    2.0160 C.2    18  ASP18       0.2266
     50  O         -5.6230   19.4000    2.3910 O.2    18  ASP18      -0.2867
     51  CB        -4.9760   22.4470    3.1270 C.3    18  ASP18       0.1410
     52  CG        -5.0560   23.9560    2.9740 C.2    18  ASP18       0.3668
     53  OD1       -5.2110   24.4530    1.8380 O.co2  18  ASP18      -0.2456
     54  OD2       -4.9500   24.6490    4.0080 O.co2  18  ASP18      -0.2456
     55  N          0.0460   29.1250   -7.8850 N.3    34  GLU34      -0.1245
     56  CA         0.5480   30.2990   -7.1830 C.3    34  GLU34       0.1567
     57  C          2.0210   30.1200   -6.8850 C.2    34  GLU34       0.2260
     58  O          2.5360   29.0090   -6.9190 O.2    34  GLU34      -0.2867
     59  CB        -0.1740   30.4800   -5.8500 C.3    34  GLU34       0.0388
     60  CG        -1.4870   31.2060   -5.9150 C.3    34  GLU34       0.1160
     61  CD        -2.0750   31.4200   -4.5360 C.2    34  GLU34       0.3649
     62  OE1       -1.3640   31.9560   -3.6590 O.co2  34  GLU34      -0.2457
     63  OE2       -3.2480   31.0500   -4.3260 O.co2  34  GLU34      -0.2457
     64  N          3.4180   30.7630   -3.9060 N.3    36  GLN36      -0.1231
     65  CA         3.5530   30.2090   -2.5600 C.3    36  GLN36       0.1698
     66  C          2.5830   29.0780   -2.1890 C.2    36  GLN36       0.2592
     67  O          2.6200   28.5720   -1.0640 O.2    36  GLN36      -0.2718
     68  CB         3.4720   31.3340   -1.5250 C.3    36  GLN36       0.0381
     69  CG         4.3890   32.5370   -1.7920 C.3    36  GLN36       0.0905
     70  CD         5.8730   32.2170   -1.6850 C.2    36  GLN36       0.2608
     71  OE1        6.3170   31.5570   -0.7440 O.2    36  GLN36      -0.2717
     72  NE2        6.6530   32.7060   -2.6430 N.am   36  GLN36      -0.0878
     73  N          1.7260   28.6830   -3.1260 N.am   37  TRP37      -0.1976
     74  CA         0.7760   27.5980   -2.8910 C.3    37  TRP37       0.1640
     75  C          0.7630   26.6470   -4.0830 C.2    37  TRP37       0.2290
     76  O          0.3750   27.0200   -5.1880 O.2    37  TRP37      -0.2864
     77  CB        -0.6380   28.1380   -2.6090 C.3    37  TRP37       0.0576
     78  CG        -0.8000   28.7320   -1.2260 C.ar   37  TRP37       0.0006
     79  CD1       -0.6220   30.0410   -0.8680 C.ar   37  TRP37       0.0946
     80  CD2       -1.1060   28.0250   -0.0130 C.ar   37  TRP37       0.0152
     81  NE1       -0.7840   30.1890    0.4860 N.ar   37  TRP37      -0.2442
     82  CE2       -1.0830   28.9710    1.0370 C.ar   37  TRP37       0.0810
     83  CE3       -1.3910   26.6840    0.2880 C.ar   37  TRP37       0.0012
     84  CZ2       -1.3290   28.6200    2.3720 C.ar   37  TRP37       0.0191
     85  CZ3       -1.6360   26.3320    1.6160 C.ar   37  TRP37       0.0001
     86  CH2       -1.6030   27.2980    2.6410 C.ar   37  TRP37       0.0015
     87  N          1.7140   24.9210    1.4460 N.3    51  PRO51      -0.2116
     88  CA         2.4250   26.2030    1.4870 C.3    51  PRO51       0.1372
     89  C          3.9090   25.9540    1.1930 C.2    51  PRO51       0.2244
     90  O          4.5850   25.2120    1.9160 O.2    51  PRO51      -0.2868
     91  CB         2.1840   26.6750    2.9180 C.3    51  PRO51       0.0268
     92  CG         2.1700   25.3940    3.6910 C.3    51  PRO51       0.0207
     93  CD         1.3790   24.4550    2.8040 C.3    51  PRO51       0.0892
     94  N          6.7230   27.6960    1.5680 N.3    53  PRO53      -0.2102
     95  CA         7.7300   27.9590    2.6080 C.3    53  PRO53       0.1504
     96  C          7.8750   26.8400    3.6480 C.2    53  PRO53       0.2575
     97  O          8.8110   26.8430    4.4460 O.2    53  PRO53      -0.2718
     98  CB         7.2250   29.2530    3.2450 C.3    53  PRO53       0.0282
     99  CG         6.5800   29.9450    2.1080 C.3    53  PRO53       0.0208
    100  CD         5.7900   28.8320    1.4660 C.3    53  PRO53       0.0893
    101  N          6.9460   25.8880    3.6360 N.am   54  TYR54      -0.1977
    102  CA         6.9760   24.7640    4.5720 C.3    54  TYR54       0.1639
    103  C          7.7130   23.5450    4.0220 C.2    54  TYR54       0.2290
    104  O          7.9040   22.5620    4.7330 O.2    54  TYR54      -0.2864
    105  CB         5.5510   24.3550    4.9750 C.3    54  TYR54       0.0560
    106  CG         4.9580   25.1880    6.0870 C.ar   54  TYR54      -0.0198
    107  CD1        5.0130   26.5820    6.0520 C.ar   54  TYR54      -0.0009
    108  CD2        4.3600   24.5800    7.1870 C.ar   54  TYR54      -0.0009
    109  CE1        4.4840   27.3480    7.0900 C.ar   54  TYR54       0.0417
    110  CE2        3.8290   25.3330    8.2260 C.ar   54  TYR54       0.0417
    111  CZ         3.8950   26.7170    8.1730 C.ar   54  TYR54       0.1957
    112  OH         3.3690   27.4630    9.2010 O.3    54  TYR54      -0.2866
@<TRIPOS>BOND
     1    55    56    1
     2    56    57    1
     3    56    59    1
     4    58    57    2
     5    60    59    1
     6    60    61    1
     7    76    75    2
     8    61    63   ar
     9    61    62   ar
    10    75    74    1
    11    64    65    1
    12    73    74    1
    13    73    66   am
    14    74    77    1
    15    72    70   am
    16    77    78    1
    17    65    66    1
    18    65    68    1
    19    66    67    2
    20    69    70    1
    21    69    68    1
    22    70    71    2
    23    78    79   ar
    24    78    80   ar
    25    79    81   ar
    26    80    83   ar
    27    80    82   ar
    28    83    85   ar
    29    81    82   ar
    30    82    84   ar
    31    89    88    1
    32    89    90    2
    33    46    44   ar
    34    47    48    1
    35    87    88    1
    36    87    93    1
    37   100    94    1
    38   100    99    1
    39    88    91    1
    40    94    95    1
    41    85    86   ar
    42    48    49    1
    43    48    51    1
    44    53    52   ar
    45    49    50    2
    46    99    98    1
    47    44    45   ar
    48    44    43    1
    49    84    86   ar
    50    95    98    1
    51    95    96    1
    52    93    92    1
    53    91    92    1
    54    52    51    1
    55    52    54   ar
    56    43    40    1
    57   101    96   am
    58   101   102    1
    59    96    97    2
    60   103   102    1
    61   103   104    2
    62    41    42    2
    63    41    40    1
    64    40    39    1
    65   102   105    1
    66    29    30   ar
    67    29    27   ar
    68   105   106    1
    69    30    28   ar
    70    27    25   ar
    71    39    33   am
    72   107   106   ar
    73   107   109   ar
    74   106   108   ar
    75    28    26   ar
    76    25    26   ar
    77    25    24    1
    78    33    34    2
    79    33    32    1
    80    24    21    1
    81    31    32    1
    82    35    32    1
    83    35    36    1
    84   109   111   ar
    85   108   110   ar
    86    38    36   am
    87    36    37    2
    88    23    22    2
    89     4     3    2
    90     1     2    1
    91    10     8   ar
    92    10    11   ar
    93     8     6   ar
    94   111   110   ar
    95   111   112    1
    96    21    22    1
    97    21    20    1
    98    20    14   am
    99     3     2    1
   100     3    12   am
   101    11     9   ar
   102     2     5    1
   103     6     5    1
   104     6     7   ar
   105    14    13    1
   106    14    15    2
   107    12    13    1
   108    13    16    1
   109     9     7   ar
   110    16    17    1
   111    18    17   ar
   112    17    19   ar
