@<TRIPOS>MOLECULE
tmp/1b09C00.pdb
 107 98 0 0 0
SMALL
GASTEIGER

@<TRIPOS>ATOM
      1  N         85.6690  127.5810    4.7280 N.3    60  ASP60      -0.1225
      2  CA        86.3610  128.2180    3.6010 C.3    60  ASP60       0.1805
      3  C         87.7320  128.7870    3.9630 C.2    60  ASP60       0.2597
      4  O         88.5640  129.0900    3.0720 O.2    60  ASP60      -0.2718
      5  CB        85.4460  129.3140    2.9970 C.3    60  ASP60       0.1424
      6  CG        85.3390  130.5300    3.9160 C.2    60  ASP60       0.3668
      7  OD1       85.3620  130.3520    5.1330 O.co2  60  ASP60      -0.2456
      8  OD2       85.2190  131.6350    3.3980 O.co2  60  ASP60      -0.2456
      9  N         87.9820  128.9430    5.2930 N.am   61  ASN61      -0.1974
     10  CA        89.3380  129.2640    5.7280 C.3    61  ASN61       0.1688
     11  C         89.9940  128.1260    6.5030 C.2    61  ASN61       0.2292
     12  O         90.3520  128.2590    7.6990 O.2    61  ASN61      -0.2864
     13  CB        89.2560  130.5190    6.6010 C.3    61  ASN61       0.1181
     14  CG        88.7900  131.6710    5.7530 C.2    61  ASN61       0.2629
     15  OD1       89.1450  131.5820    4.4680 O.2    61  ASN61      -0.2716
     16  ND2       88.1400  132.6140    6.2070 N.am   61  ASN61      -0.0877
     17  N         94.7590  129.4470    5.4180 N.3    64  LEU64      -0.1245
     18  CA        94.8370  130.6500    4.5920 C.3    64  LEU64       0.1561
     19  C         95.9790  131.5810    4.9830 C.2    64  LEU64       0.2260
     20  O         96.1120  132.0020    6.1670 O.2    64  LEU64      -0.2867
     21  CB        93.5040  131.3970    4.7330 C.3    64  LEU64       0.0270
     22  CG        93.5700  132.8490    4.2580 C.3    64  LEU64       0.0019
     23  CD1       93.1950  133.0100    2.7820 C.3    64  LEU64       0.0001
     24  CD2       92.6060  133.7450    5.0360 C.3    64  LEU64       0.0001
     25  N         97.5610  135.2850    4.4030 N.3    66  PHE66      -0.1241
     26  CA        96.9910  136.5720    3.9610 C.3    66  PHE66       0.1605
     27  C         97.7960  137.7780    4.4470 C.2    66  PHE66       0.2264
     28  O         98.1210  137.8930    5.6710 O.2    66  PHE66      -0.2867
     29  CB        95.5660  136.6350    4.5460 C.3    66  PHE66       0.0534
     30  CG        94.7260  137.7010    3.8650 C.ar   66  PHE66      -0.0203
     31  CD1       94.1880  137.4750    2.6040 C.ar   66  PHE66      -0.0042
     32  CD2       94.4420  138.8760    4.5420 C.ar   66  PHE66      -0.0042
     33  CE1       93.3570  138.4270    2.0240 C.ar   66  PHE66      -0.0003
     34  CE2       93.6070  139.8270    3.9570 C.ar   66  PHE66      -0.0003
     35  CZ        93.0630  139.6040    2.7010 C.ar   66  PHE66      -0.0000
     36  N         97.7560  141.6490    5.3800 N.3    68  SER68      -0.1217
     37  CA        96.7850  142.7200    5.6800 C.3    68  SER68       0.1889
     38  C         97.4280  144.0480    6.0180 C.2    68  SER68       0.2288
     39  O         98.0580  144.2360    7.0940 O.2    68  SER68      -0.2866
     40  CB        95.9060  142.2460    6.8500 C.3    68  SER68       0.2089
     41  OG        96.7090  141.5280    7.7890 O.3    68  SER68      -0.2183
     42  N         98.8610  137.5980    8.1450 N.3    74  SER74      -0.1217
     43  CA        97.8580  136.7990    8.8470 C.3    74  SER74       0.1889
     44  C         97.9120  135.3420    8.4530 C.2    74  SER74       0.2288
     45  O         97.9070  134.9840    7.2450 O.2    74  SER74      -0.2866
     46  CB        96.4900  137.3730    8.4930 C.3    74  SER74       0.2089
     47  OG        95.4720  136.4970    8.9980 O.3    74  SER74      -0.2183
     48  N         95.9380  131.6990    9.2100 N.3    76  THR76      -0.1218
     49  CA        94.8110  131.0810    9.8740 C.3    76  THR76       0.1862
     50  C         94.5520  129.6650    9.4310 C.2    76  THR76       0.2287
     51  O         94.5400  129.3430    8.2160 O.2    76  THR76      -0.2866
     52  CB        93.5800  131.9280    9.5990 C.3    76  THR76       0.1770
     53  OG1       92.5360  131.1030    9.0830 O.3    76  THR76      -0.2211
     54  CG2       93.8900  133.0200    8.5770 C.3    76  THR76       0.0375
     55  N         92.4560  132.6320   13.4970 N.3    81  GLU81      -0.1245
     56  CA        93.5040  133.5060   12.9640 C.3    81  GLU81       0.1567
     57  C         94.6590  133.7470   13.9290 C.2    81  GLU81       0.2260
     58  O         94.4440  133.9270   15.1710 O.2    81  GLU81      -0.2867
     59  CB        92.8280  134.8390   12.6290 C.3    81  GLU81       0.0388
     60  CG        93.3050  135.4480   11.3050 C.3    81  GLU81       0.1160
     61  CD        93.0390  136.9420   11.3390 C.2    81  GLU81       0.3649
     62  OE1       92.7230  137.4520   12.4050 O.co2  81  GLU81      -0.2457
     63  OE2       93.1440  137.5830   10.2950 O.co2  81  GLU81      -0.2457
     64  N         90.9790  134.9000   -3.0910 N.3   138  GLU138     -0.1231
     65  CA        90.5530  134.3400   -1.8140 C.3   138  GLU138      0.1699
     66  C         89.2190  133.6420   -1.9030 C.2   138  GLU138      0.2592
     67  O         88.3070  134.0720   -2.6820 O.2   138  GLU138     -0.2718
     68  CB        90.4710  135.4950   -0.8070 C.3   138  GLU138      0.0402
     69  CG        90.6560  135.0190    0.6400 C.3   138  GLU138      0.1161
     70  CD        89.3840  134.3510    1.1150 C.2   138  GLU138      0.3649
     71  OE1       88.3250  134.6590    0.5820 O.co2 138  GLU138     -0.2457
     72  OE2       89.4610  133.5260    2.0240 O.co2 138  GLU138     -0.2457
     73  N         89.0850  132.5300   -1.1600 N.am  139  GLN139     -0.1966
     74  CA        87.8490  131.7590   -1.2460 C.3   139  GLN139      0.1733
     75  C         86.8650  132.1090   -0.1490 C.2   139  GLN139      0.2616
     76  O         87.2520  132.3540    1.0150 O.2   139  GLN139     -0.2715
     77  CB        88.2190  130.2730   -1.1660 C.3   139  GLN139      0.0408
     78  CG        88.0740  129.5630   -2.5210 C.3   139  GLN139      0.0908
     79  CD        89.1180  128.4730   -2.6490 C.2   139  GLN139      0.2608
     80  OE1       90.3120  128.6770   -2.5150 O.2   139  GLN139     -0.2717
     81  NE2       88.6030  127.2570   -2.9150 N.am  139  GLN139     -0.0878
     82  N         85.5880  132.1570   -0.5360 N.am  140  ASP140     -0.1971
     83  CA        84.5370  132.2870    0.4580 C.3   140  ASP140      0.1709
     84  C         83.5500  131.1700    0.3430 C.2   140  ASP140      0.2293
     85  O         82.4710  131.1660    0.9850 O.2   140  ASP140     -0.2864
     86  CB        83.8490  133.6310    0.2300 C.3   140  ASP140      0.1436
     87  CG        84.7850  134.7330    0.6810 C.2   140  ASP140      0.3671
     88  OD1       84.9680  134.8800    1.8910 O.co2 140  ASP140     -0.2456
     89  OD2       85.3200  135.4270   -0.1730 O.co2 140  ASP140     -0.2456
     90  N         86.3080  137.7650   -3.9060 N.3   147  GLU147     -0.1245
     91  CA        86.5250  139.1650   -3.4900 C.3   147  GLU147      0.1567
     92  C         87.4600  139.9270   -4.3450 C.2   147  GLU147      0.2260
     93  O         88.7200  139.7720   -4.2090 O.2   147  GLU147     -0.2867
     94  CB        87.0700  139.1590   -2.0970 C.3   147  GLU147      0.0388
     95  CG        86.3230  140.1440   -1.2470 C.3   147  GLU147      0.1160
     96  CD        85.2230  139.4080   -0.5880 C.2   147  GLU147      0.3649
     97  OE1       85.4700  138.8360    0.4240 O.co2 147  GLU147     -0.2457
     98  OE2       84.1210  139.4010   -1.1150 O.co2 147  GLU147     -0.2457
     99  N         90.5650  141.4480   -2.6010 N.3   150  GLN150     -0.1245
    100  CA        91.5690  140.5510   -2.0350 C.3   150  GLN150      0.1566
    101  C         92.4070  139.8920   -3.1210 C.2   150  GLN150      0.2260
    102  O         93.3230  139.0680   -2.8600 O.2   150  GLN150     -0.2867
    103  CB        90.8300  139.4920   -1.2170 C.3   150  GLN150      0.0367
    104  CG        90.1980  140.0720    0.0520 C.3   150  GLN150      0.0905
    105  CD        89.2040  139.0960    0.6290 C.2   150  GLN150      0.2608
    106  OE1       88.8170  138.1310   -0.2280 O.2   150  GLN150     -0.2717
    107  NE2       88.7860  139.1810    1.7670 N.am  150  GLN150     -0.0878
@<TRIPOS>BOND
     1    92    93    2
     2    92    91    1
     3    90    91    1
     4    91    94    1
     5   101   102    2
     6   101   100    1
     7    64    65    1
     8    81    79   am
     9    67    66    2
    10    79    78    1
    11    79    80    2
    12    99   100    1
    13    78    77    1
    14    94    95    1
    15   100   103    1
    16    66    65    1
    17    66    73   am
    18    65    68    1
    19    95    96    1
    20    74    77    1
    21    74    73    1
    22    74    75    1
    23   103   104    1
    24    98    96   ar
    25    68    69    1
    26    96    97   ar
    27    82    75   am
    28    82    83    1
    29   106   105    2
    30    89    87   ar
    31    75    76    2
    32   104   105    1
    33    86    83    1
    34    86    87    1
    35    84    83    1
    36    84    85    2
    37    71    70   ar
    38   105   107   am
    39    69    70    1
    40    87    88   ar
    41    70    72   ar
    42    33    31   ar
    43    33    35   ar
    44    31    30   ar
    45    35    34   ar
    46    23    22    1
    47     5     2    1
    48     5     6    1
    49     4     3    2
    50     8     6   ar
    51     2     3    1
    52     2     1    1
    53    30    32   ar
    54    30    29    1
    55     6     7   ar
    56    34    32   ar
    57    26    25    1
    58    26    27    1
    59    26    29    1
    60     3     9   am
    61    22    21    1
    62    22    24    1
    63    27    28    2
    64    15    14    2
    65    18    21    1
    66    18    19    1
    67    18    17    1
    68    19    20    2
    69     9    10    1
    70    36    37    1
    71    37    38    1
    72    37    40    1
    73    10    11    1
    74    10    13    1
    75    14    16   am
    76    14    13    1
    77    38    39    2
    78    11    12    2
    79    40    41    1
    80    45    44    2
    81    42    43    1
    82    51    50    2
    83    44    43    1
    84    46    43    1
    85    46    47    1
    86    54    52    1
    87    53    52    1
    88    48    49    1
    89    50    49    1
    90    52    49    1
    91    63    61   ar
    92    60    61    1
    93    60    59    1
    94    61    62   ar
    95    59    56    1
    96    56    55    1
    97    56    57    1
    98    57    58    2
