@<TRIPOS>MOLECULE
tmp/1b0dA00.pdb
 82 79 0 0 0
SMALL
GASTEIGER

@<TRIPOS>ATOM
      1  N          0.8360   23.3820   11.8340 N.3    33  LYS33      -0.1231
      2  CA         1.6990   23.6690   10.6900 C.3    33  LYS33       0.1693
      3  C          3.0570   24.2300   11.1230 C.2    33  LYS33       0.2592
      4  O          4.1100   23.7190   10.7340 O.2    33  LYS33      -0.2718
      5  CB         1.0080   24.6760    9.7640 C.3    33  LYS33       0.0285
      6  CG         1.9010   25.2690    8.6720 C.3    33  LYS33       0.0035
      7  CD         2.3860   24.2140    7.6930 C.3    33  LYS33       0.0206
      8  CE         3.2940   24.8310    6.6420 C.3    33  LYS33       0.1093
      9  NZ         3.7080   23.8100    5.6520 N.3    33  LYS33      -0.1314
     10  N          3.0240   25.2710   11.9490 N.am   34  PHE34      -0.1962
     11  CA         4.2460   25.9220   12.4020 C.3    34  PHE34       0.1771
     12  C          4.9780   25.2670   13.5610 C.2    34  PHE34       0.2619
     13  O          6.1090   25.6420   13.8700 O.2    34  PHE34      -0.2715
     14  CB         3.9830   27.4070   12.6570 C.3    34  PHE34       0.0574
     15  CG         3.5410   28.1500   11.4260 C.ar   34  PHE34      -0.0200
     16  CD1        4.2610   28.0410   10.2400 C.ar   34  PHE34      -0.0042
     17  CD2        2.3950   28.9320   11.4410 C.ar   34  PHE34      -0.0042
     18  CE1        3.8410   28.7010    9.0890 C.ar   34  PHE34      -0.0003
     19  CE2        1.9720   29.5920   10.2950 C.ar   34  PHE34      -0.0003
     20  CZ         2.6940   29.4780    9.1180 C.ar   34  PHE34      -0.0000
     21  N          4.3440   24.2900   14.2000 N.am   35  GLU35      -0.1963
     22  CA         4.9940   23.5780   15.2930 C.3    35  GLU35       0.1733
     23  C          5.7110   22.3380   14.7640 C.2    35  GLU35       0.2617
     24  O          6.8650   22.0820   15.1130 O.2    35  GLU35      -0.2715
     25  CB         3.9800   23.1380   16.3580 C.3    35  GLU35       0.0429
     26  CG         3.4990   24.2340   17.3060 C.3    35  GLU35       0.1163
     27  CD         4.5930   24.7950   18.2050 C.2    35  GLU35       0.3649
     28  OE1        5.6660   24.1720   18.3290 O.co2  35  GLU35      -0.2457
     29  OE2        4.3730   25.8700   18.7970 O.co2  35  GLU35      -0.2457
     30  N          5.0540   21.6180   13.8580 N.am   36  SER36      -0.1936
     31  CA         5.6050   20.3710   13.3380 C.3    36  SER36       0.2055
     32  C          5.5560   20.1760   11.8370 C.2    36  SER36       0.2643
     33  O          6.0010   19.1350   11.3540 O.2    36  SER36      -0.2714
     34  CB         4.8220   19.2180   13.9420 C.3    36  SER36       0.2130
     35  OG         3.5140   19.1990   13.3860 O.3    36  SER36      -0.2179
     36  N          4.9420   21.1160   11.1190 N.am   37  ASN37      -0.1971
     37  CA         4.7920   21.0240    9.6650 C.3    37  ASN37       0.1688
     38  C          3.8360   19.8750    9.3270 C.2    37  ASN37       0.2292
     39  O          3.9820   19.2200    8.2920 O.2    37  ASN37      -0.2864
     40  CB         6.1530   20.7850    8.9980 C.3    37  ASN37       0.1181
     41  CG         6.1750   21.2110    7.5540 C.2    37  ASN37       0.2629
     42  OD1        5.3580   22.0240    7.1240 O.2    37  ASN37      -0.2716
     43  ND2        7.1260   20.6790    6.7950 N.am   37  ASN37      -0.0877
     44  N          3.6360   17.0500   10.8020 N.3    39  ASN39      -0.1240
     45  CA         4.2900   15.7560   10.9470 C.3    39  ASN39       0.1653
     46  C          4.1450   15.2160   12.3680 C.2    39  ASN39       0.2266
     47  O          4.6790   15.7880   13.3230 O.2    39  ASN39      -0.2867
     48  CB         5.7700   15.8790   10.5550 C.3    39  ASN39       0.1155
     49  CG         6.5170   14.5620   10.6320 C.2    39  ASN39       0.2627
     50  OD1        5.9180   13.4890   10.7160 O.2    39  ASN39      -0.2716
     51  ND2        7.8390   14.6380   10.5980 N.am   39  ASN39      -0.0877
     52  N          7.5010   14.5080   14.4320 N.3    42  ALA42      -0.1231
     53  CA         8.4450   15.5620   14.7750 C.3    42  ALA42       0.1694
     54  C          8.8450   15.6140   16.2540 C.2    42  ALA42       0.2593
     55  O          8.0040   15.5140   17.1500 O.2    42  ALA42      -0.2718
     56  CB         7.9060   16.9190   14.3330 C.3    42  ALA42       0.0304
     57  N         10.1480   15.7180   16.4910 N.am   43  THR43      -0.1939
     58  CA        10.6950   15.8400   17.8350 C.3    43  THR43       0.2028
     59  C         11.7560   16.9330   17.8080 C.2    43  THR43       0.2642
     60  O         12.4870   17.0890   16.8230 O.2    43  THR43      -0.2714
     61  CB        11.3560   14.5510   18.3400 C.3    43  THR43       0.1808
     62  OG1       12.4110   14.1760   17.4440 O.3    43  THR43      -0.2208
     63  CG2       10.3440   13.4270   18.4630 C.3    43  THR43       0.0379
     64  N         11.8250   17.7000   18.8900 N.am   44  ASN44      -0.1971
     65  CA        12.7870   18.7900   19.0120 C.3    44  ASN44       0.1688
     66  C         13.2350   18.9120   20.4500 C.2    44  ASN44       0.2292
     67  O         12.4220   19.0920   21.3490 O.2    44  ASN44      -0.2864
     68  CB        12.1680   20.1120   18.5510 C.3    44  ASN44       0.1181
     69  CG        12.1880   20.2660   17.0460 C.2    44  ASN44       0.2629
     70  OD1       13.2550   20.3960   16.4410 O.2    44  ASN44      -0.2716
     71  ND2       11.0070   20.2370   16.4260 N.am   44  ASN44      -0.0877
     72  N          3.0190   33.3050   15.2060 N.3   114  ARG114     -0.1245
     73  CA         2.6550   33.1580   13.7970 C.3   114  ARG114      0.1563
     74  C          1.1790   32.9450   13.4460 C.2   114  ARG114      0.2260
     75  O          0.8170   32.9770   12.2710 O.2   114  ARG114     -0.2867
     76  CB         3.5000   32.0310   13.1950 C.3   114  ARG114      0.0307
     77  CG         4.9690   32.1090   13.6130 C.3   114  ARG114      0.0489
     78  CD         5.7940   31.0540   12.9720 C.3   114  ARG114      0.2205
     79  NE         5.9200   31.2580   11.5350 N.pl3 114  ARG114     -0.0865
     80  CZ         6.6400   30.4690   10.7500 C.cat 114  ARG114      0.5346
     81  NH1        7.2850   29.4390   11.2800 N.pl3 114  ARG114      0.1354
     82  NH2        6.7100   30.7030    9.4470 N.pl3 114  ARG114      0.1354
@<TRIPOS>BOND
     1     9     8    1
     2     8     7    1
     3    43    41   am
     4    42    41    2
     5    41    40    1
     6     7     6    1
     7    39    38    2
     8     6     5    1
     9    40    37    1
    10    18    20   ar
    11    18    16   ar
    12    20    19   ar
    13    38    37    1
    14    82    80    1
    15    37    36    1
    16     5     2    1
    17    16    15   ar
    18    19    17   ar
    19    48    49    1
    20    48    45    1
    21    51    49   am
    22    49    50    2
    23     2     3    1
    24     2     1    1
    25     4     3    2
    26    80    81    1
    27    80    79    2
    28    44    45    1
    29    45    46    1
    30    36    32   am
    31     3    10   am
    32    33    32    2
    33    15    17   ar
    34    15    14    1
    35    79    78    1
    36    32    31    1
    37    10    11    1
    38    75    74    2
    39    46    47    2
    40    11    14    1
    41    11    12    1
    42    78    77    1
    43    76    77    1
    44    76    73    1
    45    31    30    1
    46    31    34    1
    47    35    34    1
    48    74    73    1
    49    12    13    2
    50    12    21   am
    51    73    72    1
    52    30    23   am
    53    21    22    1
    54    56    53    1
    55    52    53    1
    56    23    24    2
    57    23    22    1
    58    53    54    1
    59    22    25    1
    60    54    57   am
    61    54    55    2
    62    25    26    1
    63    71    69   am
    64    70    69    2
    65    57    58    1
    66    60    59    2
    67    69    68    1
    68    26    27    1
    69    62    61    1
    70    59    58    1
    71    59    64   am
    72    58    61    1
    73    27    28   ar
    74    27    29   ar
    75    61    63    1
    76    68    65    1
    77    64    65    1
    78    65    66    1
    79    66    67    2
