@<TRIPOS>MOLECULE
tmp/1b0eA00.pdb
 157 155 0 0 0
SMALL
GASTEIGER

@<TRIPOS>ATOM
      1  N         12.0290   62.6930   25.2200 N.3    29  THR29      -0.1203
      2  CA        11.0430   63.7460   25.0610 C.3    29  THR29       0.1994
      3  C         11.4410   65.0290   25.8090 C.2    29  THR29       0.2618
      4  O         11.1380   66.1330   25.3610 O.2    29  THR29      -0.2717
      5  CB         9.6270   63.2510   25.4820 C.3    29  THR29       0.1784
      6  OG1        8.6500   64.2560   25.1670 O.3    29  THR29      -0.2211
      7  CG2        9.5730   62.9330   26.9590 C.3    29  THR29       0.0376
      8  N         12.2240   64.8840   26.8730 N.am   30  CYS30      -0.1969
      9  CA        12.6390   66.0320   27.6720 C.3    30  CYS30       0.1712
     10  C         13.8710   65.7200   28.4990 C.2    30  CYS30       0.2296
     11  O         14.2990   64.5670   28.5850 O.2    30  CYS30      -0.2864
     12  CB        11.5150   66.4100   28.6550 C.3    30  CYS30       0.0983
     13  SG        10.1440   67.3760   27.9640 S.3    30  CYS30      -0.0798
     14  N          5.2420   70.8920   31.6630 N.3    45  HIS45      -0.1226
     15  CA         4.7710   70.6430   30.2930 C.3    45  HIS45       0.1752
     16  C          5.3040   69.3660   29.6430 C.2    45  HIS45       0.2596
     17  O          4.8420   68.9740   28.5760 O.2    45  HIS45      -0.2718
     18  CB         4.9740   71.8670   29.3720 C.3    45  HIS45       0.0759
     19  CG         6.3710   72.0410   28.8540 C.ar   45  HIS45       0.0818
     20  ND1        7.2530   72.9630   29.3840 N.ar   45  HIS45      -0.2268
     21  CD2        7.0180   71.4630   27.8170 C.ar   45  HIS45       0.1154
     22  CE1        8.3800   72.9480   28.6920 C.ar   45  HIS45       0.1986
     23  NE2        8.2590   72.0470   27.7350 N.ar   45  HIS45      -0.2212
     24  N          6.2700   68.7260   30.2930 N.am   46  CYS46      -0.1970
     25  CA         6.8520   67.4870   29.7950 C.3    46  CYS46       0.1712
     26  C          6.0550   66.2720   30.2280 C.2    46  CYS46       0.2296
     27  O          6.0640   65.2400   29.5580 O.2    46  CYS46      -0.2864
     28  CB         8.2620   67.3090   30.3620 C.3    46  CYS46       0.0983
     29  SG         9.5030   68.4080   29.6460 S.3    46  CYS46      -0.0798
     30  N          0.0480   75.1130   37.6870 N.3    83  TRP83      -0.1241
     31  CA         0.3310   74.9060   36.2680 C.3    83  TRP83       0.1605
     32  C         -0.9260   74.7280   35.4160 C.2    83  TRP83       0.2264
     33  O         -1.8600   74.0420   35.8150 O.2    83  TRP83      -0.2867
     34  CB         1.2370   73.6760   36.0740 C.3    83  TRP83       0.0550
     35  CG         1.4020   73.2530   34.6380 C.ar   83  TRP83       0.0003
     36  CD1        0.9150   72.1120   34.0610 C.ar   83  TRP83       0.0946
     37  CD2        2.0710   73.9750   33.5960 C.ar   83  TRP83       0.0152
     38  NE1        1.2370   72.0840   32.7270 N.ar   83  TRP83      -0.2442
     39  CE2        1.9450   73.2150   32.4120 C.ar   83  TRP83       0.0810
     40  CE3        2.7680   75.1940   33.5460 C.ar   83  TRP83       0.0012
     41  CZ2        2.4850   73.6300   31.1920 C.ar   83  TRP83       0.0191
     42  CZ3        3.3090   75.6090   32.3260 C.ar   83  TRP83       0.0001
     43  CH2        3.1620   74.8260   31.1670 C.ar   83  TRP83       0.0015
     44  N         -1.0070   77.3510   29.1200 N.3    87  ASP87      -0.1225
     45  CA        -0.4960   78.6860   29.4130 C.3    87  ASP87       0.1805
     46  C          0.9220   78.6510   29.9810 C.2    87  ASP87       0.2598
     47  O          1.1380   78.9140   31.1650 O.2    87  ASP87      -0.2718
     48  CB        -1.4680   79.3580   30.3980 C.3    87  ASP87       0.1424
     49  CG        -1.2680   80.8660   30.5170 C.2    87  ASP87       0.3668
     50  OD1       -0.3040   81.4250   29.9540 O.co2  87  ASP87      -0.2456
     51  OD2       -2.0900   81.5010   31.2010 O.co2  87  ASP87      -0.2456
     52  N          1.8920   78.3910   29.1160 N.am   88  VAL88      -0.1966
     53  CA         3.2850   78.3120   29.5530 C.3    88  VAL88       0.1727
     54  C          3.8410   79.6340   30.1230 C.2    88  VAL88       0.2616
     55  O          4.5780   79.6200   31.1140 O.2    88  VAL88      -0.2715
     56  CB         4.2110   77.7460   28.4150 C.3    88  VAL88       0.0290
     57  CG1        4.4380   78.7880   27.3150 C.3    88  VAL88       0.0023
     58  CG2        5.5410   77.2380   28.9990 C.3    88  VAL88       0.0023
     59  N          3.4100   80.7700   29.5640 N.am   89  ALA89      -0.1977
     60  CA         3.8990   82.0870   30.0040 C.3    89  ALA89       0.1597
     61  C          3.4230   82.5300   31.3910 C.2    89  ALA89       0.2287
     62  O          3.9560   83.4920   31.9580 O.2    89  ALA89      -0.2864
     63  CB         3.5920   83.1570   28.9570 C.3    89  ALA89       0.0319
     64  N         11.3450   90.4010   26.2560 N.3   164  TRP164     -0.1241
     65  CA        10.1320   89.6090   26.3940 C.3   164  TRP164      0.1605
     66  C          8.9160   90.3700   26.9070 C.2   164  TRP164      0.2264
     67  O          7.7950   89.8540   26.8570 O.2   164  TRP164     -0.2867
     68  CB        10.3910   88.4070   27.2990 C.3   164  TRP164      0.0550
     69  CG        10.9550   87.2130   26.5920 C.ar  164  TRP164      0.0003
     70  CD1       12.2310   86.7330   26.6790 C.ar  164  TRP164      0.0946
     71  CD2       10.2440   86.3140   25.7420 C.ar  164  TRP164      0.0152
     72  NE1       12.3520   85.5840   25.9370 N.ar  164  TRP164     -0.2442
     73  CE2       11.1470   85.3050   25.3490 C.ar  164  TRP164      0.0810
     74  CE3        8.9210   86.2580   25.2740 C.ar  164  TRP164      0.0012
     75  CZ2       10.7730   84.2500   24.5130 C.ar  164  TRP164      0.0191
     76  CZ3        8.5490   85.2060   24.4440 C.ar  164  TRP164      0.0001
     77  CH2        9.4720   84.2170   24.0720 C.ar  164  TRP164      0.0015
     78  N          5.6320   89.0820   29.2380 N.3   167  THR167     -0.1218
     79  CA         5.5810   87.6330   29.0880 C.3   167  THR167      0.1862
     80  C          6.4350   86.9610   30.1670 C.2   167  THR167      0.2287
     81  O          6.0640   85.9090   30.6770 O.2   167  THR167     -0.2866
     82  CB         6.0570   87.2050   27.6900 C.3   167  THR167      0.1770
     83  OG1        5.2500   87.8550   26.7040 O.3   167  THR167     -0.2211
     84  CG2        5.9260   85.7080   27.5050 C.3   167  THR167      0.0375
     85  N         16.2330   74.5250   22.6660 N.3   184  CYS184     -0.1221
     86  CA        15.3570   74.2790   21.5280 C.3   184  CYS184      0.1808
     87  C         14.5500   73.0130   21.8540 C.2   184  CYS184      0.2601
     88  O         14.7820   72.3940   22.8990 O.2   184  CYS184     -0.2717
     89  CB        16.2040   74.1380   20.2500 C.3   184  CYS184      0.0970
     90  SG        15.3800   74.5720   18.6710 S.3   184  CYS184     -0.0800
     91  N         13.5810   72.6470   21.0170 N.am  185  GLN185     -0.1965
     92  CA        12.7330   71.4780   21.2910 C.3   185  GLN185      0.1733
     93  C         13.4960   70.2110   21.6800 C.2   185  GLN185      0.2616
     94  O         14.3730   69.7510   20.9480 O.2   185  GLN185     -0.2715
     95  CB        11.7880   71.1980   20.1210 C.3   185  GLN185      0.0408
     96  CG        10.6540   72.2140   19.9770 C.3   185  GLN185      0.0908
     97  CD        11.0540   73.4730   19.2280 C.2   185  GLN185      0.2608
     98  OE1       12.2060   73.6510   18.8340 O.2   185  GLN185     -0.2717
     99  NE2       10.0870   74.3490   19.0090 N.am  185  GLN185     -0.0878
    100  N         13.1400   69.6530   22.8330 N.am  186  GLY186     -0.1955
    101  CA        13.8040   68.4630   23.3390 C.3   186  GLY186      0.1869
    102  C         14.6760   68.8000   24.5430 C.2   186  GLY186      0.2309
    103  O         15.0790   67.9040   25.2950 O.2   186  GLY186     -0.2863
    104  N         13.6370   71.0090   26.8340 N.3   188  SER188     -0.1217
    105  CA        12.6490   71.2890   27.8840 C.3   188  SER188      0.1889
    106  C         12.8270   70.4220   29.1250 C.2   188  SER188      0.2288
    107  O         13.1110   69.2220   29.0190 O.2   188  SER188     -0.2866
    108  CB        11.2220   71.0590   27.3550 C.3   188  SER188      0.2089
    109  OG        10.7430   71.9590   26.3340 O.3   188  SER188     -0.2183
    110  N         14.5380   74.4400   31.9610 N.3   206  THR206     -0.1203
    111  CA        14.2210   74.9160   30.6160 C.3   206  THR206      0.1994
    112  C         12.7140   74.8790   30.3280 C.2   206  THR206      0.2619
    113  O         12.0880   73.8160   30.3800 O.2   206  THR206     -0.2717
    114  CB        14.9940   74.1100   29.5700 C.3   206  THR206      0.1784
    115  OG1       16.3760   74.0550   29.9550 O.3   206  THR206     -0.2211
    116  CG2       14.8800   74.7660   28.1990 C.3   206  THR206      0.0376
    117  N         12.1410   76.0440   30.0290 N.am  207  SER207     -0.1937
    118  CA        10.7100   76.1430   29.7930 C.3   207  SER207      0.2055
    119  C         10.2490   76.4640   28.3670 C.2   207  SER207      0.2643
    120  O          9.6150   75.6160   27.7270 O.2   207  SER207     -0.2714
    121  CB        10.0870   77.1170   30.8010 C.3   207  SER207      0.2130
    122  OG         8.6740   77.1380   30.6940 O.3   207  SER207     -0.2179
    123  N         10.5660   77.6530   27.8540 N.am  208  PHE208     -0.1959
    124  CA        10.1180   78.0160   26.5120 C.3   208  PHE208      0.1771
    125  C         11.0020   78.9890   25.7300 C.2   208  PHE208      0.2619
    126  O         11.9380   79.5840   26.2760 O.2   208  PHE208     -0.2715
    127  CB         8.6660   78.5520   26.5560 C.3   208  PHE208      0.0574
    128  CG         8.5030   79.8800   27.2700 C.ar  208  PHE208     -0.0200
    129  CD1        8.6010   81.0830   26.5700 C.ar  208  PHE208     -0.0042
    130  CD2        8.2080   79.9260   28.6290 C.ar  208  PHE208     -0.0042
    131  CE1        8.4040   82.3120   27.2150 C.ar  208  PHE208     -0.0003
    132  CE2        8.0070   81.1470   29.2820 C.ar  208  PHE208     -0.0003
    133  CZ         8.1080   82.3450   28.5660 C.ar  208  PHE208     -0.0000
    134  N         10.7210   79.0820   24.4310 N.am  209  VAL209     -0.1963
    135  CA        11.4090   79.9860   23.5120 C.3   209  VAL209      0.1727
    136  C         10.3210   80.7510   22.7470 C.2   209  VAL209      0.2617
    137  O          9.1170   80.5320   22.9660 O.2   209  VAL209     -0.2715
    138  CB        12.3440   79.2350   22.5190 C.3   209  VAL209      0.0290
    139  CG1       13.5160   78.5990   23.2730 C.3   209  VAL209      0.0023
    140  CG2       11.5710   78.1690   21.7380 C.3   209  VAL209      0.0023
    141  N         10.7280   81.6650   21.8750 N.am  210  SER210     -0.1936
    142  CA         9.7560   82.4520   21.1270 C.3   210  SER210      0.2055
    143  C          9.1650   81.7380   19.9200 C.2   210  SER210      0.2642
    144  O          9.7000   80.7390   19.4270 O.2   210  SER210     -0.2714
    145  CB        10.3690   83.7870   20.6780 C.3   210  SER210      0.2130
    146  OG        11.2380   83.6200   19.5740 O.3   210  SER210     -0.2179
    147  N          8.0650   82.2870   19.4230 N.am  211  ARG211     -0.1977
    148  CA         7.4120   81.7530   18.2430 C.3   211  ARG211      0.1597
    149  C          8.2680   82.0680   17.0130 C.2   211  ARG211      0.2287
    150  O          8.0950   81.4600   15.9600 O.2   211  ARG211     -0.2864
    151  CB         6.0290   82.3790   18.0840 C.3   211  ARG211      0.0334
    152  CG         5.0480   82.0020   19.1810 C.3   211  ARG211      0.0492
    153  CD         3.7030   82.6920   18.9840 C.3   211  ARG211      0.2205
    154  NE         3.1520   82.4450   17.6540 N.pl3 211  ARG211     -0.0865
    155  CZ         2.9000   83.4010   16.7650 C.cat 211  ARG211      0.5346
    156  NH1        3.1430   84.6740   17.0620 N.pl3 211  ARG211      0.1354
    157  NH2        2.4190   83.0860   15.5720 N.pl3 211  ARG211      0.1354
@<TRIPOS>BOND
     1   157   155    1
     2   150   149    2
     3   155   156    1
     4   155   154    2
     5   149   148    1
     6   154   153    1
     7   151   148    1
     8   151   152    1
     9   148   147    1
    10    90    89    1
    11    98    97    2
    12   153   152    1
    13    99    97   am
    14    97    96    1
    15   147   143   am
    16   144   143    2
    17   146   145    1
    18   143   142    1
    19    96    95    1
    20    95    92    1
    21    89    86    1
    22   145   142    1
    23    94    93    2
    24    91    92    1
    25    91    87   am
    26   142   141    1
    27    92    93    1
    28    86    87    1
    29    86    85    1
    30    93   100   am
    31   140   138    1
    32    87    88    2
    33   141   136   am
    34   138   139    1
    35   138   135    1
    36   136   137    2
    37   136   135    1
    38   100   101    1
    39   101   102    1
    40   135   134    1
    41    77    76   ar
    42    77    75   ar
    43   134   125   am
    44    76    74   ar
    45    75    73   ar
    46   102   103    2
    47     2     1    1
    48     2     5    1
    49     2     3    1
    50     6     5    1
    51    74    71   ar
    52    73    71   ar
    53    73    72   ar
    54     4     3    2
    55     5     7    1
    56   125   126    2
    57   125   124    1
    58    71    69   ar
    59     3     8   am
    60    72    70   ar
    61    64    65    1
    62   109   108    1
    63    65    66    1
    64    65    68    1
    65   124   127    1
    66   124   123    1
    67   127   128    1
    68   129   131   ar
    69   129   128   ar
    70    69    70   ar
    71    69    68    1
    72    83    82    1
    73   104   105    1
    74    67    66    2
    75     8     9    1
    76   131   133   ar
    77   128   130   ar
    78    57    56    1
    79   108   105    1
    80    84    82    1
    81     9    10    1
    82     9    12    1
    83    82    79    1
    84   120   119    2
    85    23    21   ar
    86    23    22   ar
    87    21    19   ar
    88   123   119   am
    89   105   106    1
    90    13    12    1
    91    13    29    1
    92   116   114    1
    93   119   118    1
    94    56    58    1
    95    56    53    1
    96    10    11    2
    97   133   132   ar
    98    17    16    2
    99   130   132   ar
   100    22    20   ar
   101    19    18    1
   102    19    20   ar
   103    63    60    1
   104   107   106    2
   105    79    78    1
   106    79    80    1
   107    52    53    1
   108    52    46   am
   109    44    45    1
   110    18    15    1
   111    45    46    1
   112    45    48    1
   113    53    54    1
   114    27    26    2
   115    59    60    1
   116    59    54   am
   117   114   115    1
   118   114   111    1
   119    16    24   am
   120    16    15    1
   121    29    28    1
   122   118   117    1
   123   118   121    1
   124    25    26    1
   125    25    24    1
   126    25    28    1
   127    50    49   ar
   128    46    47    2
   129    60    61    1
   130   117   112   am
   131    54    55    2
   132    80    81    2
   133    15    14    1
   134   112   113    2
   135   112   111    1
   136    48    49    1
   137    49    51   ar
   138   111   110    1
   139   122   121    1
   140    43    41   ar
   141    43    42   ar
   142    41    39   ar
   143    61    62    2
   144    42    40   ar
   145    39    38   ar
   146    39    37   ar
   147    38    36   ar
   148    40    37   ar
   149    37    35   ar
   150    36    35   ar
   151    35    34    1
   152    32    33    2
   153    32    31    1
   154    34    31    1
   155    31    30    1
