@<TRIPOS>MOLECULE
tmp/1b0fA02.pdb
 140 139 0 0 0
SMALL
GASTEIGER

@<TRIPOS>ATOM
      1  N         61.2910   66.0770   53.5810 N.3    25  PHE25      -0.1227
      2  CA        62.2590   65.2100   54.2520 C.3    25  PHE25       0.1736
      3  C         61.9380   63.7220   54.1340 C.2    25  PHE25       0.2595
      4  O         62.8060   62.8880   54.3610 O.2    25  PHE25      -0.2718
      5  CB        62.4340   65.5900   55.7220 C.3    25  PHE25       0.0547
      6  CG        61.2350   65.3140   56.5700 C.ar   25  PHE25      -0.0202
      7  CD1       60.2080   66.2540   56.6730 C.ar   25  PHE25      -0.0042
      8  CD2       61.1380   64.1250   57.2880 C.ar   25  PHE25      -0.0042
      9  CE1       59.1090   66.0180   57.4810 C.ar   25  PHE25      -0.0003
     10  CE2       60.0480   63.8770   58.0980 C.ar   25  PHE25      -0.0003
     11  CZ        59.0250   64.8290   58.1980 C.ar   25  PHE25      -0.0000
     12  N         60.6990   63.3940   53.7750 N.am   26  CYS26      -0.1970
     13  CA        60.2840   62.0010   53.6030 C.3    26  CYS26       0.1712
     14  C         59.0430   61.8530   52.7090 C.2    26  CYS26       0.2296
     15  O         58.2940   62.8120   52.4910 O.2    26  CYS26      -0.2864
     16  CB        60.0100   61.3580   54.9560 C.3    26  CYS26       0.0983
     17  SG        61.3970   60.4340   55.6440 S.3    26  CYS26      -0.0798
     18  N         61.0270   55.6630   60.7840 N.3    41  HIS41      -0.1226
     19  CA        62.2320   56.4520   61.0390 C.3    41  HIS41       0.1752
     20  C         62.1270   57.8730   60.5290 C.2    41  HIS41       0.2596
     21  O         63.0200   58.6690   60.7670 O.2    41  HIS41      -0.2718
     22  CB        63.5020   55.7640   60.4850 C.3    41  HIS41       0.0759
     23  CG        63.6480   55.8390   58.9980 C.ar   41  HIS41       0.0818
     24  ND1       63.3060   54.8000   58.1630 N.ar   41  HIS41      -0.2268
     25  CD2       64.1200   56.8210   58.1940 C.ar   41  HIS41       0.1154
     26  CE1       63.5590   55.1340   56.9090 C.ar   41  HIS41       0.1986
     27  NE2       64.0530   56.3570   56.9020 N.ar   41  HIS41      -0.2212
     28  N         61.0610   58.1930   59.8090 N.am   42  CYS42      -0.1970
     29  CA        60.9040   59.5460   59.3080 C.3    42  CYS42       0.1712
     30  C         60.4530   60.4600   60.4160 C.2    42  CYS42       0.2296
     31  O         60.9680   61.5560   60.5500 O.2    42  CYS42      -0.2864
     32  CB        59.9120   59.6130   58.1530 C.3    42  CYS42       0.0983
     33  SG        60.5560   58.8730   56.6200 S.3    42  CYS42      -0.0798
     34  N         66.2210   48.1430   62.1610 N.3    85  LEU85      -0.1245
     35  CA        65.3380   48.6150   61.0990 C.3    85  LEU85       0.1561
     36  C         64.2290   47.6230   60.7110 C.2    85  LEU85       0.2260
     37  O         64.0090   47.3210   59.5360 O.2    85  LEU85      -0.2867
     38  CB        66.1490   49.0830   59.8800 C.3    85  LEU85       0.0270
     39  CG        66.8230   50.4570   60.0160 C.3    85  LEU85       0.0019
     40  CD1       67.6790   50.7740   58.8030 C.3    85  LEU85       0.0001
     41  CD2       65.7600   51.5280   60.1870 C.3    85  LEU85       0.0001
     42  N         68.5860   39.6150   51.1130 N.3   152  CYS152     -0.1221
     43  CA        67.4290   40.2850   51.6710 C.3   152  CYS152      0.1808
     44  C         66.6560   39.4980   52.7350 C.2   152  CYS152      0.2601
     45  O         66.2530   38.3580   52.5080 O.2   152  CYS152     -0.2717
     46  CB        66.4960   40.6120   50.5280 C.3   152  CYS152      0.0970
     47  SG        65.0880   41.6190   51.0230 S.3   152  CYS152     -0.0800
     48  N         66.4250   40.1230   53.8840 N.am  153  ARG153     -0.1979
     49  CA        65.6770   39.5020   54.9720 C.3   153  ARG153      0.1597
     50  C         64.2120   39.2380   54.5820 C.2   153  ARG153      0.2287
     51  O         63.6240   39.9540   53.7790 O.2   153  ARG153     -0.2864
     52  CB        65.7040   40.4170   56.1900 C.3   153  ARG153      0.0334
     53  CG        67.0930   40.9180   56.5560 C.3   153  ARG153      0.0492
     54  CD        67.1000   41.7500   57.8480 C.3   153  ARG153      0.2205
     55  NE        66.4160   43.0320   57.7000 N.pl3 153  ARG153     -0.0865
     56  CZ        66.3850   43.9770   58.6290 C.cat 153  ARG153      0.5346
     57  NH1       67.0000   43.7990   59.7890 N.pl3 153  ARG153      0.1354
     58  NH2       65.7400   45.1050   58.3910 N.pl3 153  ARG153      0.1354
     59  N         66.6910   53.8740   45.0450 N.3   168  VAL168     -0.1231
     60  CA        66.2750   54.9570   45.9340 C.3   168  VAL168      0.1692
     61  C         67.4920   55.4770   46.6990 C.2   168  VAL168      0.2592
     62  O         68.4760   54.7540   46.9270 O.2   168  VAL168     -0.2718
     63  CB        65.1400   54.5470   46.9370 C.3   168  VAL168      0.0266
     64  CG1       63.9470   53.9960   46.1840 C.3   168  VAL168      0.0020
     65  CG2       65.6500   53.5640   47.9830 C.3   168  VAL168      0.0020
     66  N         67.4190   56.7480   47.0600 N.am  169  CYS169     -0.1956
     67  CA        68.4830   57.4050   47.7750 C.3   169  CYS169      0.1843
     68  C         67.8580   58.2200   48.8970 C.2   169  CYS169      0.2625
     69  O         66.6480   58.1970   49.0860 O.2   169  CYS169     -0.2714
     70  CB        69.2640   58.2920   46.8190 C.3   169  CYS169      0.0997
     71  SG        70.8740   58.8230   47.4540 S.3   169  CYS169     -0.0797
     72  N         68.6730   58.9470   49.6370 N.am  170  PHE170     -0.1960
     73  CA        68.1790   59.7250   50.7590 C.3   170  PHE170      0.1771
     74  C         67.0610   60.6900   50.4190 C.2   170  PHE170      0.2620
     75  O         67.1830   61.4850   49.4970 O.2   170  PHE170     -0.2715
     76  CB        69.3450   60.4410   51.4210 C.3   170  PHE170      0.0574
     77  CG        70.4410   59.5090   51.8210 C.ar  170  PHE170     -0.0200
     78  CD1       70.3070   58.7140   52.9500 C.ar  170  PHE170     -0.0042
     79  CD2       71.5620   59.3600   51.0320 C.ar  170  PHE170     -0.0042
     80  CE1       71.2760   57.7750   53.2850 C.ar  170  PHE170     -0.0003
     81  CE2       72.5260   58.4310   51.3530 C.ar  170  PHE170     -0.0003
     82  CZ        72.3890   57.6300   52.4860 C.ar  170  PHE170     -0.0000
     83  N         65.9650   60.5940   51.1660 N.am  171  GLY171     -0.1940
     84  CA        64.8240   61.4650   50.9490 C.3   171  GLY171      0.2014
     85  C         63.6710   60.7120   50.3300 C.2   171  GLY171      0.2639
     86  O         62.6040   61.2820   50.1150 O.2   171  GLY171     -0.2714
     87  N         63.9020   59.4450   49.9930 N.am  172  ASP172     -0.1957
     88  CA        62.8710   58.5880   49.4160 C.3   172  ASP172      0.1840
     89  C         62.2150   57.7340   50.4680 C.2   172  ASP172      0.2622
     90  O         61.2080   57.0920   50.1960 O.2   172  ASP172     -0.2715
     91  CB        63.4510   57.6740   48.3460 C.3   172  ASP172      0.1450
     92  CG        63.8160   58.4210   47.0920 C.2   172  ASP172      0.3671
     93  OD1       63.1980   59.4680   46.8360 O.co2 172  ASP172     -0.2456
     94  OD2       64.7110   57.9620   46.3580 O.co2 172  ASP172     -0.2456
     95  N         62.7720   57.7520   51.6750 N.am  173  SER173     -0.1950
     96  CA        62.2600   56.9770   52.7940 C.3   173  SER173      0.1924
     97  C         60.8160   57.3550   53.0010 C.2   173  SER173      0.2314
     98  O         60.4660   58.5410   52.9540 O.2   173  SER173     -0.2863
     99  CB        63.0390   57.2960   54.0490 C.3   173  SER173      0.2116
    100  OG        64.4450   57.0380   53.8020 O.3   173  SER173     -0.2180
    101  N         59.6500   52.6120   51.3330 N.3   187  ALA187     -0.1231
    102  CA        61.0840   52.8720   51.2460 C.3   187  ALA187      0.1694
    103  C         61.6830   53.0470   52.6400 C.2   187  ALA187      0.2593
    104  O         61.2700   53.9450   53.3920 O.2   187  ALA187     -0.2718
    105  CB        61.3480   54.0820   50.3760 C.3   187  ALA187      0.0304
    106  N         62.6870   52.2140   52.9380 N.am  188  SER188     -0.1938
    107  CA        63.3340   52.1600   54.2380 C.3   188  SER188      0.2055
    108  C         64.8430   52.4420   54.3080 C.2   188  SER188      0.2643
    109  O         65.2400   53.4640   54.8690 O.2   188  SER188     -0.2714
    110  CB        63.0020   50.8020   54.8570 C.3   188  SER188      0.2130
    111  OG        63.6420   50.5930   56.0850 O.3   188  SER188     -0.2179
    112  N         65.6820   51.5380   53.7980 N.am  189  PHE189     -0.1959
    113  CA        67.1430   51.7160   53.8510 C.3   189  PHE189      0.1771
    114  C         67.9080   51.1330   52.6530 C.2   189  PHE189      0.2619
    115  O         67.4610   50.1840   52.0140 O.2   189  PHE189     -0.2715
    116  CB        67.7050   51.1030   55.1300 C.3   189  PHE189      0.0574
    117  CG        67.5980   49.6100   55.1870 C.ar  189  PHE189     -0.0200
    118  CD1       66.4720   49.0010   55.7220 C.ar  189  PHE189     -0.0042
    119  CD2       68.6380   48.8100   54.7330 C.ar  189  PHE189     -0.0042
    120  CE1       66.3900   47.6000   55.8120 C.ar  189  PHE189     -0.0003
    121  CE2       68.5680   47.4150   54.8160 C.ar  189  PHE189     -0.0003
    122  CZ        67.4460   46.8060   55.3550 C.ar  189  PHE189     -0.0000
    123  N         69.0660   51.7150   52.3510 N.am  190  VAL190     -0.1963
    124  CA        69.9060   51.2560   51.2480 C.3   190  VAL190      0.1727
    125  C         71.2340   50.7390   51.7790 C.2   190  VAL190      0.2616
    126  O         71.6460   51.0540   52.8990 O.2   190  VAL190     -0.2715
    127  CB        70.1660   52.3410   50.2010 C.3   190  VAL190      0.0290
    128  CG1       68.8640   52.7550   49.5650 C.3   190  VAL190      0.0023
    129  CG2       70.8800   53.5270   50.8170 C.3   190  VAL190      0.0023
    130  N         71.9180   49.9750   50.9490 N.am  191  ARG191     -0.1977
    131  CA        73.1660   49.3650   51.3220 C.3   191  ARG191      0.1597
    132  C         74.2060   49.5300   50.2010 C.2   191  ARG191      0.2287
    133  O         73.9020   49.3750   49.0090 O.2   191  ARG191     -0.2864
    134  CB        72.8830   47.9100   51.6230 C.3   191  ARG191      0.0334
    135  CG        74.0770   47.0880   51.9020 C.3   191  ARG191      0.0492
    136  CD        73.6530   45.6770   52.1490 C.3   191  ARG191      0.2205
    137  NE        74.8120   44.8650   52.4640 N.pl3 191  ARG191     -0.0865
    138  CZ        74.8060   43.5450   52.5460 C.cat 191  ARG191      0.5346
    139  NH1       73.6830   42.8740   52.3480 N.pl3 191  ARG191      0.1354
    140  NH2       75.9420   42.9020   52.7560 N.pl3 191  ARG191      0.1354
@<TRIPOS>BOND
     1    59    60    1
     2    60    61    1
     3    60    63    1
     4    64    63    1
     5    94    92   ar
     6    61    62    2
     7    61    66   am
     8    70    71    1
     9    70    67    1
    10    93    92   ar
    11    63    65    1
    12    66    67    1
    13    92    91    1
    14    67    68    1
    15    91    88    1
    16    68    69    2
    17    68    72   am
    18   133   132    2
    19    88    87    1
    20    88    89    1
    21    75    74    2
    22   128   127    1
    23    72    73    1
    24    87    85   am
    25    86    85    2
    26    90    89    2
    27   132   131    1
    28   127   129    1
    29   127   124    1
    30    85    84    1
    31   105   102    1
    32    74    73    1
    33    74    83   am
    34    89    95   am
    35    46    47    1
    36    46    43    1
    37    73    76    1
    38   130   131    1
    39   130   125   am
    40    84    83    1
    41    79    81   ar
    42    79    77   ar
    43    42    43    1
    44   102   101    1
    45   102   103    1
    46   124   125    1
    47   124   123    1
    48   131   134    1
    49    81    82   ar
    50    76    77    1
    51   134   135    1
    52    43    44    1
    53    95    96    1
    54   125   126    2
    55    77    78   ar
    56   135   136    1
    57   115   114    2
    58   136   137    1
    59   139   138    1
    60   123   114   am
    61   137   138    2
    62    82    80   ar
    63    15    14    2
    64    45    44    2
    65   138   140    1
    66   103   106   am
    67   103   104    2
    68   114   113    1
    69    14    13    1
    70    44    48   am
    71    96    97    1
    72    96    99    1
    73   106   107    1
    74    78    80   ar
    75    98    97    2
    76     1     2    1
    77    13    12    1
    78    13    16    1
    79    12     3   am
    80    51    50    2
    81   112   113    1
    82   112   108   am
    83   100    99    1
    84   113   116    1
    85    48    49    1
    86     3     2    1
    87     3     4    2
    88   107   108    1
    89   107   110    1
    90     2     5    1
    91   108   109    2
    92    50    49    1
    93   119   121   ar
    94   119   117   ar
    95   121   122   ar
    96   110   111    1
    97    16    17    1
    98    49    52    1
    99   116   117    1
   100   117   118   ar
   101   122   120   ar
   102    17    33    1
   103     5     6    1
   104   118   120   ar
   105    52    53    1
   106    53    54    1
   107     6     7   ar
   108     6     8   ar
   109    33    32    1
   110     7     9   ar
   111    27    26   ar
   112    27    25   ar
   113    26    24   ar
   114     8    10   ar
   115     9    11   ar
   116    55    54    1
   117    55    56    2
   118    10    11   ar
   119    32    29    1
   120    24    23   ar
   121    25    23   ar
   122    58    56    1
   123    56    57    1
   124    40    39    1
   125    23    22    1
   126    29    28    1
   127    29    30    1
   128    37    36    2
   129    28    20   am
   130    38    39    1
   131    38    35    1
   132    39    41    1
   133    30    31    2
   134    22    19    1
   135    20    21    2
   136    20    19    1
   137    36    35    1
   138    18    19    1
   139    35    34    1
