@<TRIPOS>MOLECULE
tmp/1b0mA00.pdb
 133 124 0 0 0
SMALL
GASTEIGER

@<TRIPOS>ATOM
      1  N        -32.8590  -34.9170  108.9430 N.3    71  GLN71      -0.1245
      2  CA       -33.7420  -35.1880  107.8400 C.3    71  GLN71       0.1566
      3  C        -34.7370  -36.2820  108.1770 C.2    71  GLN71       0.2260
      4  O        -34.4270  -37.0170  109.1350 O.2    71  GLN71      -0.2867
      5  CB       -32.9290  -35.5190  106.6500 C.3    71  GLN71       0.0367
      6  CG       -31.7990  -36.4430  106.9290 C.3    71  GLN71       0.0905
      7  CD       -32.0350  -37.9080  106.8160 C.2    71  GLN71       0.2608
      8  OE1      -33.1460  -38.3430  106.6490 O.2    71  GLN71      -0.2717
      9  NE2      -31.0350  -38.7580  106.9580 N.am   71  GLN71      -0.0878
     10  N        -35.5580  -39.5380  107.2950 N.3    73  ALA73      -0.1231
     11  CA       -35.0740  -40.9010  107.5290 C.3    73  ALA73       0.1694
     12  C        -34.2970  -41.0740  108.8330 C.2    73  ALA73       0.2592
     13  O        -34.2670  -42.1760  109.3920 O.2    73  ALA73      -0.2718
     14  CB       -34.1840  -41.3260  106.3750 C.3    73  ALA73       0.0304
     15  N        -33.6280  -40.0980  109.4140 N.am   74  THR74      -0.1953
     16  CA       -32.9380  -40.2890  110.7060 C.3    74  THR74       0.1897
     17  C        -33.5960  -39.5660  111.8820 C.2    74  THR74       0.2313
     18  O        -33.3050  -39.8010  113.0560 O.2    74  THR74      -0.2863
     19  CB       -31.5180  -39.8630  110.5790 C.3    74  THR74       0.1794
     20  OG1      -31.5330  -38.6180  109.9830 O.3    74  THR74      -0.2208
     21  CG2      -30.7450  -40.8030  109.7570 C.3    74  THR74       0.0378
     22  N        -36.1830  -37.3500  102.2570 N.3   100  HIS100     -0.1241
     23  CA       -35.7300  -38.7170  102.1380 C.3   100  HIS100      0.1621
     24  C        -36.7030  -39.7950  101.7610 C.2   100  HIS100      0.2264
     25  O        -36.3360  -40.8610  101.2650 O.2   100  HIS100     -0.2867
     26  CB       -35.0370  -39.1110  103.4460 C.3   100  HIS100      0.0745
     27  CG       -33.5500  -38.8160  103.3930 C.ar  100  HIS100      0.0817
     28  ND1      -32.8410  -37.7140  103.6660 N.ar  100  HIS100     -0.2268
     29  CD2      -32.6990  -39.7740  102.9070 C.ar  100  HIS100      0.1154
     30  CE1      -31.5960  -37.9550  103.3720 C.ar  100  HIS100      0.1986
     31  NE2      -31.5330  -39.1900  102.8970 N.ar  100  HIS100     -0.2212
     32  N        -26.9850  -36.6640  109.4760 N.3   164  ASP164     -0.1225
     33  CA       -26.7410  -37.0310  108.0940 C.3   164  ASP164      0.1805
     34  C        -25.2380  -36.9290  107.8840 C.2   164  ASP164      0.2598
     35  O        -24.5610  -36.0580  108.4140 O.2   164  ASP164     -0.2718
     36  CB       -27.5560  -36.0950  107.1620 C.3   164  ASP164      0.1424
     37  CG       -27.6530  -36.6190  105.7310 C.2   164  ASP164      0.3668
     38  OD1      -26.7160  -36.2940  104.9610 O.co2 164  ASP164     -0.2456
     39  OD2      -28.6620  -37.2760  105.3910 O.co2 164  ASP164     -0.2456
     40  N        -24.6650  -37.8030  107.0700 N.am  165  SER165     -0.1938
     41  CA       -23.2210  -37.7900  106.8730 C.3   165  SER165      0.2055
     42  C        -22.8410  -36.6840  105.9430 C.2   165  SER165      0.2643
     43  O        -21.6860  -36.3120  105.9720 O.2   165  SER165     -0.2714
     44  CB       -22.7140  -39.0950  106.3080 C.3   165  SER165      0.2130
     45  OG       -23.4020  -39.2900  105.1270 O.3   165  SER165     -0.2179
     46  N        -23.7710  -36.0870  105.2200 N.am  166  HIS166     -0.1973
     47  CA       -23.4320  -35.0110  104.3290 C.3   166  HIS166      0.1656
     48  C        -23.7340  -33.6890  104.9200 C.2   166  HIS166      0.2291
     49  O        -23.8010  -32.7580  104.1780 O.2   166  HIS166     -0.2864
     50  CB       -24.1280  -35.2740  102.9170 C.3   166  HIS166      0.0771
     51  CG       -23.3270  -36.3660  102.1900 C.ar  166  HIS166      0.0820
     52  ND1      -23.5850  -37.6530  101.9420 N.ar  166  HIS166     -0.2267
     53  CD2      -21.9990  -36.1850  101.8520 C.ar  166  HIS166      0.1154
     54  CE1      -22.4840  -38.2130  101.4980 C.ar  166  HIS166      0.1986
     55  NE2      -21.5240  -37.3260  101.4470 N.ar  166  HIS166     -0.2212
     56  N        -30.1690  -41.8420   97.2140 N.3   424  ILE424     -0.1245
     57  CA       -30.3630  -42.7920   98.3260 C.3   424  ILE424      0.1561
     58  C        -30.9820  -44.0870   97.8820 C.2   424  ILE424      0.2260
     59  O        -31.2020  -44.9810   98.7210 O.2   424  ILE424     -0.2867
     60  CB       -31.3590  -42.4140   99.4670 C.3   424  ILE424      0.0252
     61  CG1      -32.1970  -41.2660   98.9840 C.3   424  ILE424      0.0019
     62  CG2      -30.6330  -42.2230  100.7960 C.3   424  ILE424      0.0019
     63  CD1      -33.4080  -41.1550   99.8890 C.3   424  ILE424      0.0001
     64  N        -21.6650  -40.5860   96.8900 N.3   446  ARG446     -0.1245
     65  CA       -21.5010  -42.0010   97.1710 C.3   446  ARG446      0.1563
     66  C        -21.9150  -42.9180   96.0380 C.2   446  ARG446      0.2260
     67  O        -23.0530  -42.8170   95.5920 O.2   446  ARG446     -0.2867
     68  CB       -22.3120  -42.4720   98.3450 C.3   446  ARG446      0.0307
     69  CG       -21.7920  -42.0150   99.6400 C.3   446  ARG446      0.0489
     70  CD       -21.9230  -42.9670  100.8560 C.3   446  ARG446      0.2205
     71  NE       -21.1910  -42.2530  101.9090 N.pl3 446  ARG446     -0.0865
     72  CZ       -21.8140  -41.4780  102.8380 C.cat 446  ARG446      0.5346
     73  NH1      -23.1630  -41.4420  102.8980 N.pl3 446  ARG446      0.1354
     74  NH2      -21.1000  -40.7360  103.7130 N.pl3 446  ARG446      0.1354
     75  N        -26.3330  -48.7730   95.5240 N.3   451  ARG451     -0.1245
     76  CA       -26.8620  -47.6770   96.3120 C.3   451  ARG451      0.1563
     77  C        -28.0670  -46.9150   95.7290 C.2   451  ARG451      0.2260
     78  O        -28.9670  -46.4440   96.4390 O.2   451  ARG451     -0.2867
     79  CB       -25.6350  -46.8330   96.5090 C.3   451  ARG451      0.0307
     80  CG       -25.7990  -45.4370   96.9270 C.3   451  ARG451      0.0489
     81  CD       -25.5610  -45.3870   98.3890 C.3   451  ARG451      0.2205
     82  NE       -25.9440  -44.0290   98.6160 N.pl3 451  ARG451     -0.0865
     83  CZ       -26.4200  -43.6020   99.7750 C.cat 451  ARG451      0.5346
     84  NH1      -26.5250  -44.3890  100.8990 N.pl3 451  ARG451      0.1354
     85  NH2      -26.7740  -42.2960   99.6990 N.pl3 451  ARG451      0.1354
     86  N        -24.4880  -49.2180  105.0750 N.3   567  ASP567     -0.1239
     87  CA       -25.4670  -49.7980  104.1730 C.3   567  ASP567      0.1674
     88  C        -25.3740  -51.2930  103.9760 C.2   567  ASP567      0.2266
     89  O        -26.3210  -51.8900  103.5110 O.2   567  ASP567     -0.2867
     90  CB       -25.3900  -49.0570  102.8290 C.3   567  ASP567      0.1410
     91  CG       -26.1260  -47.7180  102.7700 C.2   567  ASP567      0.3668
     92  OD1      -26.9170  -47.3620  103.6420 O.co2 567  ASP567     -0.2456
     93  OD2      -25.8960  -47.0170  101.8000 O.co2 567  ASP567     -0.2456
     94  N        -36.1310  -47.7370  104.0900 N.3   576  LEU576     -0.1245
     95  CA       -36.4520  -46.4530  104.6740 C.3   576  LEU576      0.1561
     96  C        -37.9020  -46.3300  105.1490 C.2   576  LEU576      0.2260
     97  O        -38.2910  -45.4270  105.9210 O.2   576  LEU576     -0.2867
     98  CB       -36.1870  -45.3140  103.6900 C.3   576  LEU576      0.0270
     99  CG       -34.7640  -45.1040  103.1860 C.3   576  LEU576      0.0019
    100  CD1      -34.7470  -43.8540  102.2660 C.3   576  LEU576      0.0001
    101  CD2      -33.8020  -44.9880  104.3870 C.3   576  LEU576      0.0001
    102  N        -37.7890  -46.7340  109.1710 N.3   579  ARG579     -0.1245
    103  CA       -36.9090  -46.0590  110.0780 C.3   579  ARG579      0.1563
    104  C        -37.5740  -45.6140  111.3700 C.2   579  ARG579      0.2260
    105  O        -36.8520  -45.1010  112.2360 O.2   579  ARG579     -0.2867
    106  CB       -36.3040  -44.8740  109.3570 C.3   579  ARG579      0.0307
    107  CG       -35.5350  -45.3750  108.1720 C.3   579  ARG579      0.0489
    108  CD       -34.1900  -46.0110  108.5130 C.3   579  ARG579      0.2205
    109  NE       -33.2830  -44.9010  108.6750 N.pl3 579  ARG579     -0.0865
    110  CZ       -32.1320  -44.8030  107.9660 C.cat 579  ARG579      0.5346
    111  NH1      -31.7580  -45.6270  106.9950 N.pl3 579  ARG579      0.1354
    112  NH2      -31.3790  -43.7530  108.1630 N.pl3 579  ARG579      0.1354
    113  N        -23.1440  -43.8110  105.6970 N.3   641  SER641     -0.1202
    114  CA       -24.2990  -43.1140  106.1560 C.3   641  SER641      0.2020
    115  C        -24.2290  -42.8890  107.6920 C.2   641  SER641      0.2619
    116  O        -23.5560  -43.6660  108.3530 O.2   641  SER641     -0.2717
    117  CB       -25.3770  -43.9980  105.6130 C.3   641  SER641      0.2103
    118  OG       -26.6900  -43.6510  105.9790 O.3   641  SER641     -0.2182
    119  N        -24.7240  -41.8380  108.3540 N.am  642  SER642     -0.1937
    120  CA       -24.6580  -41.7030  109.7910 C.3   642  SER642      0.2055
    121  C        -25.7240  -42.5210  110.5510 C.2   642  SER642      0.2642
    122  O        -25.6650  -42.6730  111.7650 O.2   642  SER642     -0.2714
    123  CB       -24.8110  -40.2470  110.0830 C.3   642  SER642      0.2130
    124  OG       -26.1370  -39.8620  109.7240 O.3   642  SER642     -0.2179
    125  N        -26.6340  -43.1670  109.8560 N.am  643  GLN643     -0.1976
    126  CA       -27.7980  -43.7490  110.4310 C.3   643  GLN643      0.1601
    127  C        -27.6120  -44.5470  111.6760 C.2   643  GLN643      0.2287
    128  O        -26.9410  -45.5600  111.5960 O.2   643  GLN643     -0.2864
    129  CB       -28.5020  -44.5690  109.3520 C.3   643  GLN643      0.0394
    130  CG       -27.6260  -45.4160  108.4610 C.3   643  GLN643      0.0908
    131  CD       -28.0430  -46.8480  108.2550 C.2   643  GLN643      0.2608
    132  OE1      -28.5160  -47.5440  109.1560 O.2   643  GLN643     -0.2717
    133  NE2      -27.8340  -47.3420  107.0480 N.am  643  GLN643     -0.0878
@<TRIPOS>BOND
     1    75    76    1
     2    67    66    2
     3    77    76    1
     4    77    78    2
     5    66    65    1
     6    76    79    1
     7    79    80    1
     8    64    65    1
     9    80    81    1
    10    65    68    1
    11    56    57    1
    12    58    57    1
    13    58    59    2
    14    57    60    1
    15    68    69    1
    16    81    82    1
    17    82    83    2
    18    61    60    1
    19    61    63    1
    20    60    62    1
    21    69    70    1
    22    85    83    1
    23    83    84    1
    24    70    71    1
    25    25    24    2
    26    55    54   ar
    27    55    53   ar
    28    54    52   ar
    29    24    23    1
    30    93    91   ar
    31    53    51   ar
    32    71    72    2
    33    52    51   ar
    34    23    22    1
    35    23    26    1
    36    51    50    1
    37   100    99    1
    38    91    90    1
    39    91    92   ar
    40    90    87    1
    41    72    73    1
    42    72    74    1
    43    31    29   ar
    44    31    30   ar
    45    29    27   ar
    46    50    47    1
    47    99    98    1
    48    99   101    1
    49    30    28   ar
    50    27    26    1
    51    27    28   ar
    52    89    88    2
    53    98    95    1
    54    88    87    1
    55    94    95    1
    56    87    86    1
    57    49    48    2
    58    47    48    1
    59    47    46    1
    60    95    96    1
    61    38    37   ar
    62    45    44    1
    63    96    97    2
    64    46    42   am
    65    39    37   ar
    66   117   118    1
    67   117   114    1
    68   113   114    1
    69    37    36    1
    70    42    43    2
    71    42    41    1
    72   114   115    1
    73    44    41    1
    74    14    11    1
    75     8     7    2
    76     5     6    1
    77     5     2    1
    78     7     6    1
    79     7     9   am
    80    41    40    1
    81   111   110    1
    82   133   131   am
    83    40    34   am
    84    36    33    1
    85    10    11    1
    86    11    12    1
    87   115   116    2
    88   115   119   am
    89     2     3    1
    90     2     1    1
    91    34    33    1
    92    34    35    2
    93   110   112    1
    94   110   109    2
    95    33    32    1
    96   107   108    1
    97   107   106    1
    98     3     4    2
    99   131   130    1
   100   131   132    2
   101   119   120    1
   102   130   129    1
   103   108   109    1
   104    12    13    2
   105    12    15   am
   106   102   103    1
   107   129   126    1
   108   106   103    1
   109    15    16    1
   110   124   123    1
   111    21    19    1
   112   120   123    1
   113   120   121    1
   114   125   126    1
   115   125   121   am
   116    20    19    1
   117   103   104    1
   118   126   127    1
   119   121   122    2
   120    19    16    1
   121    16    17    1
   122   104   105    2
   123   128   127    2
   124    17    18    2
