@<TRIPOS>MOLECULE
tmp/1b0oA00.pdb
 172 155 0 0 0
SMALL
GASTEIGER

@<TRIPOS>ATOM
      1  N         18.2920   16.3480   28.2720 N.3    11  ILE11      -0.1245
      2  CA        17.6980   15.1120   28.7300 C.3    11  ILE11       0.1561
      3  C         18.5790   13.9120   28.4250 C.2    11  ILE11       0.2260
      4  O         18.4110   12.8280   28.9860 O.2    11  ILE11      -0.2867
      5  CB        16.3140   14.8760   28.0910 C.3    11  ILE11       0.0252
      6  CG1       15.3770   14.0310   28.9600 C.3    11  ILE11       0.0019
      7  CG2       16.4680   14.2800   26.7080 C.3    11  ILE11       0.0019
      8  CD1       15.8700   13.8760   30.3860 C.3    11  ILE11       0.0001
      9  N          0.5010    4.6770   46.0930 N.3    37  PRO37      -0.2102
     10  CA         0.4940    5.0750   44.6860 C.3    37  PRO37       0.1504
     11  C          1.7640    5.6960   44.1390 C.2    37  PRO37       0.2575
     12  O          2.3010    5.2000   43.1350 O.2    37  PRO37      -0.2718
     13  CB        -0.6230    6.1470   44.6520 C.3    37  PRO37       0.0282
     14  CG        -1.5850    5.5950   45.6560 C.3    37  PRO37       0.0208
     15  CD        -0.7010    5.1620   46.8020 C.3    37  PRO37       0.0893
     16  N          2.3040    6.7900   44.6870 N.am   38  LEU38      -0.1980
     17  CA         3.5150    7.2840   44.0120 C.3    38  LEU38       0.1596
     18  C          4.7750    6.9270   44.7800 C.2    38  LEU38       0.2287
     19  O          5.8320    7.5380   44.6290 O.2    38  LEU38      -0.2864
     20  CB         3.4290    8.7870   43.7880 C.3    38  LEU38       0.0297
     21  CG         2.5450    9.2500   42.6290 C.3    38  LEU38       0.0022
     22  CD1        1.9950    8.0680   41.8550 C.3    38  LEU38       0.0001
     23  CD2        1.4260   10.1440   43.1670 C.3    38  LEU38       0.0001
     24  N          7.4830    5.2210   44.4780 N.3    40  VAL40      -0.1245
     25  CA         8.2430    4.5250   43.4440 C.3    40  VAL40       0.1561
     26  C          9.7250    4.8720   43.5640 C.2    40  VAL40       0.2260
     27  O         10.0660    6.0210   43.8390 O.2    40  VAL40      -0.2867
     28  CB         7.7440    4.8760   42.0310 C.3    40  VAL40       0.0252
     29  CG1        6.2460    4.6170   41.9250 C.3    40  VAL40       0.0019
     30  CG2        8.0560    6.3270   41.6780 C.3    40  VAL40       0.0019
     31  N         13.5650    4.8730   41.8750 N.3    42  VAL42      -0.1245
     32  CA        14.1540    4.9410   40.5450 C.3    42  VAL42       0.1561
     33  C         15.4510    4.1390   40.5010 C.2    42  VAL42       0.2260
     34  O         16.2000    4.1960   41.4700 O.2    42  VAL42      -0.2867
     35  CB        14.3930    6.4000   40.1300 C.3    42  VAL42       0.0252
     36  CG1       14.8280    6.4920   38.6770 C.3    42  VAL42       0.0019
     37  CG2       13.1240    7.2150   40.3590 C.3    42  VAL42       0.0019
     38  N         17.7470    6.3420   34.4310 N.3    45  LEU45      -0.1245
     39  CA        16.9130    6.9520   33.3850 C.3    45  LEU45       0.1561
     40  C         17.4030    6.5690   32.0000 C.2    45  LEU45       0.2260
     41  O         18.6080    6.5050   31.7550 O.2    45  LEU45      -0.2867
     42  CB        16.9020    8.4690   33.5670 C.3    45  LEU45       0.0270
     43  CG        16.4760    8.9110   34.9700 C.3    45  LEU45       0.0019
     44  CD1       16.5930   10.4130   35.1570 C.3    45  LEU45       0.0001
     45  CD2       15.0580    8.4370   35.2280 C.3    45  LEU45       0.0001
     46  N         11.6990    9.3950   26.9130 N.3    53  LEU53      -0.1245
     47  CA        12.4050    8.9750   28.1250 C.3    53  LEU53       0.1561
     48  C         11.7900    7.7240   28.7330 C.2    53  LEU53       0.2260
     49  O         10.6130    7.7090   29.0950 O.2    53  LEU53      -0.2867
     50  CB        12.3990   10.1330   29.1180 C.3    53  LEU53       0.0270
     51  CG        13.2090    9.9540   30.3990 C.3    53  LEU53       0.0019
     52  CD1       14.6960    9.9780   30.0850 C.3    53  LEU53       0.0001
     53  CD2       12.8440   11.0300   31.4070 C.3    53  LEU53       0.0001
     54  N         11.8640    4.8640   31.7590 N.3    55  ILE55      -0.1245
     55  CA        12.2490    4.8030   33.1680 C.3    55  ILE55       0.1561
     56  C         12.0720    3.4190   33.7810 C.2    55  ILE55       0.2260
     57  O         11.0600    2.7380   33.6310 O.2    55  ILE55      -0.2867
     58  CB        11.4540    5.8380   33.9930 C.3    55  ILE55       0.0252
     59  CG1       11.7010    7.2840   33.5570 C.3    55  ILE55       0.0019
     60  CG2       11.7280    5.6750   35.4790 C.3    55  ILE55       0.0019
     61  CD1       10.4590    8.1470   33.5440 C.3    55  ILE55       0.0001
     62  N         11.9850    1.5020   37.3240 N.3    57  LEU57      -0.1245
     63  CA        11.7840    1.7320   38.7490 C.3    57  LEU57       0.1561
     64  C         11.2610    0.4900   39.4590 C.2    57  LEU57       0.2260
     65  O         10.8220   -0.4750   38.8390 O.2    57  LEU57      -0.2867
     66  CB        10.8010    2.8930   38.9490 C.3    57  LEU57       0.0270
     67  CG         9.3890    2.6340   38.4100 C.3    57  LEU57       0.0019
     68  CD1        8.3830    2.6170   39.5540 C.3    57  LEU57       0.0001
     69  CD2        9.0160    3.6660   37.3550 C.3    57  LEU57       0.0001
     70  N          8.4460   -0.8340   42.3570 N.3    59  LYS59      -0.1245
     71  CA         7.1900   -0.4070   42.9680 C.3    59  LYS59       0.1561
     72  C          6.5600   -1.5590   43.7340 C.2    59  LYS59       0.2260
     73  O          6.0600   -2.5120   43.1430 O.2    59  LYS59      -0.2867
     74  CB         6.2210    0.1260   41.9150 C.3    59  LYS59       0.0271
     75  CG         4.7660    0.0780   42.3560 C.3    59  LYS59       0.0035
     76  CD         4.4030    1.3250   43.1530 C.3    59  LYS59       0.0206
     77  CE         3.3120    2.1230   42.4580 C.3    59  LYS59       0.1093
     78  NZ         2.4970    1.2720   41.5440 N.3    59  LYS59      -0.1314
     79  N          4.3460   -3.9510   44.9180 N.3    61  GLU61      -0.1245
     80  CA         3.0160   -4.3540   44.4840 C.3    61  GLU61       0.1567
     81  C          2.6840   -5.7560   44.9930 C.2    61  GLU61       0.2260
     82  O          3.4570   -6.6880   44.8000 O.2    61  GLU61      -0.2867
     83  CB         2.8980   -4.2980   42.9590 C.3    61  GLU61       0.0388
     84  CG         2.2730   -3.0090   42.4510 C.3    61  GLU61       0.1160
     85  CD         2.8270   -2.5600   41.1190 C.2    61  GLU61       0.3649
     86  OE1        3.4770   -3.3770   40.4330 O.co2  61  GLU61      -0.2457
     87  OE2        2.6130   -1.3820   40.7650 O.co2  61  GLU61      -0.2457
     88  N          9.7470   -2.1040   37.2990 N.3    68  LYS68      -0.1245
     89  CA         8.7650   -1.5080   36.3950 C.3    68  LYS68       0.1561
     90  C          9.4560   -0.6550   35.3440 C.2    68  LYS68       0.2260
     91  O         10.5120   -0.0710   35.5850 O.2    68  LYS68      -0.2867
     92  CB         7.7370   -0.6810   37.1650 C.3    68  LYS68       0.0271
     93  CG         6.4430   -1.4180   37.4750 C.3    68  LYS68       0.0035
     94  CD         5.3530   -0.4660   37.9450 C.3    68  LYS68       0.0206
     95  CE         4.0310   -0.7440   37.2460 C.3    68  LYS68       0.1093
     96  NZ         3.2900   -1.8660   37.8910 N.3    68  LYS68      -0.1314
     97  N          8.5790    2.4950   32.9510 N.3    70  ILE70      -0.1245
     98  CA         7.6570    3.5230   32.4750 C.3    70  ILE70       0.1561
     99  C          8.2660    4.2970   31.3150 C.2    70  ILE70       0.2260
    100  O          9.4830    4.3940   31.1660 O.2    70  ILE70      -0.2867
    101  CB         7.2700    4.4980   33.5990 C.3    70  ILE70       0.0252
    102  CG1        6.8460    3.7950   34.8910 C.3    70  ILE70       0.0019
    103  CG2        6.1840    5.4600   33.1500 C.3    70  ILE70       0.0019
    104  CD1        5.3490    3.7280   35.0910 C.3    70  ILE70       0.0001
    105  N          7.6470   16.1990   30.6440 N.3    81  PHE81      -0.1241
    106  CA         7.2910   14.9360   30.0270 C.3    81  PHE81       0.1605
    107  C          5.8980   14.5110   30.4750 C.2    81  PHE81       0.2264
    108  O          5.3850   15.0600   31.4470 O.2    81  PHE81      -0.2867
    109  CB         8.3250   13.8590   30.3700 C.3    81  PHE81       0.0534
    110  CG         9.6960   14.2150   29.8040 C.ar   81  PHE81      -0.0203
    111  CD1       10.4870   15.1780   30.4070 C.ar   81  PHE81      -0.0042
    112  CD2       10.1660   13.5830   28.6670 C.ar   81  PHE81      -0.0042
    113  CE1       11.7250   15.4970   29.8820 C.ar   81  PHE81      -0.0003
    114  CE2       11.4030   13.8980   28.1360 C.ar   81  PHE81      -0.0003
    115  CZ        12.1900   14.8590   28.7430 C.ar   81  PHE81      -0.0000
    116  N          3.6810   10.8700   31.0360 N.3    83  ILE83      -0.1245
    117  CA         3.7940    9.4060   30.9620 C.3    83  ILE83       0.1561
    118  C          2.4640    8.8040   30.5240 C.2    83  ILE83       0.2260
    119  O          1.4210    9.4270   30.7020 O.2    83  ILE83      -0.2867
    120  CB         4.3250    8.8340   32.2820 C.3    83  ILE83       0.0252
    121  CG1        3.3750    8.8560   33.4790 C.3    83  ILE83       0.0019
    122  CG2        5.6180    9.5580   32.6620 C.3    83  ILE83       0.0019
    123  CD1        4.1100    8.9790   34.8030 C.3    83  ILE83       0.0001
    124  N          5.4130   14.8050   34.2650 N.3    91  VAL91      -0.1245
    125  CA         6.6680   14.7200   35.0020 C.3    91  VAL91       0.1561
    126  C          7.5390   15.9370   34.6950 C.2    91  VAL91       0.2260
    127  O          7.9180   16.1590   33.5460 O.2    91  VAL91      -0.2867
    128  CB         7.4640   13.4460   34.6750 C.3    91  VAL91       0.0252
    129  CG1        8.9540   13.6950   34.8330 C.3    91  VAL91       0.0019
    130  CG2        7.0250   12.3000   35.5730 C.3    91  VAL91       0.0019
    131  N         10.9710   18.1660   35.3820 N.3    93  VAL93      -0.1245
    132  CA        12.3420   18.3230   35.8300 C.3    93  VAL93       0.1561
    133  C         12.5580   19.7630   36.3060 C.2    93  VAL93       0.2260
    134  O         12.4940   20.6720   35.4750 O.2    93  VAL93      -0.2867
    135  CB        13.3860   18.0460   34.7390 C.3    93  VAL93       0.0252
    136  CG1       14.7900   18.2410   35.3030 C.3    93  VAL93       0.0019
    137  CG2       13.2220   16.6460   34.1730 C.3    93  VAL93       0.0019
    138  N         19.1950   15.1450   40.7060 N.3   102  LEU102     -0.1245
    139  CA        18.0360   15.5150   39.9180 C.3   102  LEU102      0.1561
    140  C         16.8070   15.7010   40.8120 C.2   102  LEU102      0.2260
    141  O         16.4170   14.7870   41.5350 O.2   102  LEU102     -0.2867
    142  CB        17.7350   14.4810   38.8340 C.3   102  LEU102      0.0270
    143  CG        16.8730   14.9680   37.6650 C.3   102  LEU102      0.0019
    144  CD1       17.2480   14.2770   36.3580 C.3   102  LEU102      0.0001
    145  CD2       15.3980   14.7550   37.9720 C.3   102  LEU102      0.0001
    146  N         12.9180   16.3340   40.4190 N.3   104  PHE104     -0.1241
    147  CA        11.7780   16.3070   39.5110 C.3   104  PHE104      0.1605
    148  C         10.5040   16.2300   40.3550 C.2   104  PHE104      0.2264
    149  O         10.5730   15.7490   41.4890 O.2   104  PHE104     -0.2867
    150  CB        11.8920   15.1560   38.5120 C.3   104  PHE104      0.0534
    151  CG        11.4540   13.8070   39.0660 C.ar  104  PHE104     -0.0203
    152  CD1       12.3460   13.0340   39.7960 C.ar  104  PHE104     -0.0042
    153  CD2       10.1780   13.3090   38.8750 C.ar  104  PHE104     -0.0042
    154  CE1       11.9740   11.8180   40.3310 C.ar  104  PHE104     -0.0003
    155  CE2        9.7980   12.0900   39.4010 C.ar  104  PHE104     -0.0003
    156  CZ        10.6880   11.3420   40.1450 C.ar  104  PHE104     -0.0000
    157  N          6.0800   15.2040   39.8640 N.3   106  MET106     -0.1245
    158  CA         5.0930   14.6200   38.9480 C.3   106  MET106      0.1570
    159  C          3.6920   14.8950   39.4760 C.2   106  MET106      0.2261
    160  O          3.3090   14.5990   40.6040 O.2   106  MET106     -0.2867
    161  CB         5.3660   13.1420   38.7130 C.3   106  MET106      0.0387
    162  CG         4.8120   12.1550   39.7160 C.3   106  MET106      0.0595
    163  SD         5.8060   10.6430   39.8040 S.3   106  MET106     -0.1393
    164  CE         5.8050   10.3630   41.5700 C.3   106  MET106      0.0692
    165  N         16.7290   12.9380   43.4170 N.3   121  LEU121     -0.1245
    166  CA        17.5160   11.8380   42.8780 C.3   121  LEU121      0.1561
    167  C         19.0020   12.1750   42.9730 C.2   121  LEU121      0.2260
    168  O         19.3880   13.2940   42.6340 O.2   121  LEU121     -0.2867
    169  CB        17.1850   11.5490   41.4200 C.3   121  LEU121      0.0270
    170  CG        15.8300   10.9410   41.0810 C.3   121  LEU121      0.0019
    171  CD1       15.6410   10.9000   39.5700 C.3   121  LEU121      0.0001
    172  CD2       15.6890    9.5530   41.6870 C.3   121  LEU121      0.0001
@<TRIPOS>BOND
     1     7     5    1
     2    46    47    1
     3     5     2    1
     4     5     6    1
     5    47    48    1
     6    47    50    1
     7   114   112   ar
     8   114   115   ar
     9     1     2    1
    10     3     2    1
    11     3     4    2
    12   112   110   ar
    13    48    49    2
    14   115   113   ar
    15     6     8    1
    16    50    51    1
    17   110   109    1
    18   110   111   ar
    19   113   111   ar
    20   106   109    1
    21   106   107    1
    22   106   105    1
    23    52    51    1
    24    51    53    1
    25   107   108    2
    26   118   119    2
    27   118   117    1
    28   117   116    1
    29   117   120    1
    30   100    99    2
    31    99    98    1
    32    41    40    2
    33    54    55    1
    34    40    39    1
    35   120   122    1
    36   120   121    1
    37    98    97    1
    38    98   101    1
    39   103   101    1
    40    55    56    1
    41    55    58    1
    42    39    42    1
    43    39    38    1
    44   121   123    1
    45    61    59    1
    46   127   126    2
    47    59    58    1
    48    42    43    1
    49   101   102    1
    50    57    56    2
    51    58    60    1
    52   137   135    1
    53   124   125    1
    54   128   129    1
    55   128   125    1
    56   128   130    1
    57   126   125    1
    58   135   136    1
    59   135   132    1
    60   102   104    1
    61    43    44    1
    62    43    45    1
    63    90    91    2
    64    90    89    1
    65   131   132    1
    66   134   133    2
    67   132   133    1
    68   144   143    1
    69    89    92    1
    70    89    88    1
    71    92    93    1
    72    95    96    1
    73    95    94    1
    74    62    63    1
    75    69    67    1
    76    93    94    1
    77   143   145    1
    78   143   142    1
    79    67    66    1
    80    67    68    1
    81   150   151    1
    82   150   147    1
    83    36    35    1
    84   161   158    1
    85   161   162    1
    86    63    66    1
    87    63    64    1
    88   142   139    1
    89    65    64    2
    90   153   151   ar
    91   153   155   ar
    92   158   159    1
    93   158   157    1
    94   151   152   ar
    95   155   156   ar
    96   159   160    2
    97   147   148    1
    98   147   146    1
    99   171   170    1
   100   162   163    1
   101   152   154   ar
   102   163   164    1
   103   139   138    1
   104   139   140    1
   105    35    37    1
   106    35    32    1
   107   156   154   ar
   108   148   149    2
   109    86    85   ar
   110    33    32    1
   111    33    34    2
   112    32    31    1
   113    87    85   ar
   114   140   141    2
   115   170   169    1
   116   170   172    1
   117    85    84    1
   118   169   166    1
   119    78    77    1
   120    30    28    1
   121    22    21    1
   122    74    75    1
   123    74    71    1
   124    29    28    1
   125    28    25    1
   126    75    76    1
   127    70    71    1
   128    84    83    1
   129    77    76    1
   130    21    23    1
   131    21    20    1
   132   168   167    2
   133   166   167    1
   134   166   165    1
   135    83    80    1
   136    71    72    1
   137    12    11    2
   138    73    72    2
   139    25    26    1
   140    25    24    1
   141    26    27    2
   142    20    17    1
   143    17    16    1
   144    17    18    1
   145    11    10    1
   146    11    16   am
   147    80    79    1
   148    80    81    1
   149    19    18    2
   150    13    10    1
   151    13    14    1
   152    10     9    1
   153    82    81    2
   154    14    15    1
   155     9    15    1
