@<TRIPOS>MOLECULE
tmp/1b0rA00.pdb
 179 172 0 0 0
SMALL
GASTEIGER

@<TRIPOS>ATOM
      1  N         20.5190    3.6470   70.5990 N.3    69  ALA69      -0.1231
      2  CA        21.3210    3.6550   71.8180 C.3    69  ALA69       0.1694
      3  C         22.7090    4.1540   71.3530 C.2    69  ALA69       0.2592
      4  O         23.3440    5.0260   71.9890 O.2    69  ALA69      -0.2718
      5  CB        21.4100    2.2660   72.4080 C.3    69  ALA69       0.0304
      6  N         23.0990    3.6820   70.1620 N.am   70  HIS70      -0.1976
      7  CA        24.3680    4.0350   69.5310 C.3    70  HIS70       0.1656
      8  C         24.3560    5.5410   69.3160 C.2    70  HIS70       0.2291
      9  O         25.3980    6.2050   69.3980 O.2    70  HIS70      -0.2864
     10  CB        24.5390    3.2790   68.1940 C.3    70  HIS70       0.0771
     11  CG        24.9530    1.8120   68.3660 C.ar   70  HIS70       0.0820
     12  ND1       24.1490    0.8880   68.9880 N.ar   70  HIS70      -0.2267
     13  CD2       26.0740    1.1660   67.9920 C.ar   70  HIS70       0.1154
     14  CE1       24.7560   -0.2820   68.9830 C.ar   70  HIS70       0.1986
     15  NE2       25.9260   -0.1420   68.3820 N.ar   70  HIS70      -0.2212
     16  N         24.6900    7.3800   72.7470 N.3    73  THR73      -0.1218
     17  CA        26.1050    7.1940   73.0520 C.3    73  THR73       0.1862
     18  C         26.9840    8.1770   72.2760 C.2    73  THR73       0.2287
     19  O         27.7960    8.8960   72.8650 O.2    73  THR73      -0.2866
     20  CB        26.5910    5.7490   72.7530 C.3    73  THR73       0.1770
     21  OG1       25.8560    4.8090   73.5470 O.3    73  THR73      -0.2211
     22  CG2       28.0710    5.6050   73.0880 C.3    73  THR73       0.0375
     23  N         26.8170   11.8630   73.4380 N.3    76  VAL76      -0.1231
     24  CA        27.4790   12.0020   74.7240 C.3    76  VAL76       0.1692
     25  C         28.9720   12.1380   74.4280 C.2    76  VAL76       0.2592
     26  O         29.6410   13.0290   74.9430 O.2    76  VAL76      -0.2718
     27  CB        27.2880   10.7400   75.5880 C.3    76  VAL76       0.0266
     28  CG1       28.1650   10.8010   76.8310 C.3    76  VAL76       0.0020
     29  CG2       25.8490   10.5820   75.9570 C.3    76  VAL76       0.0020
     30  N         29.4780   11.2570   73.5720 N.am   77  ASP77      -0.1974
     31  CA        30.8850   11.2460   73.1950 C.3    77  ASP77       0.1709
     32  C         31.4030   12.5980   72.6960 C.2    77  ASP77       0.2293
     33  O         32.4820   13.0580   73.0960 O.2    77  ASP77      -0.2864
     34  CB        31.1090   10.2020   72.1040 C.3    77  ASP77       0.1436
     35  CG        31.0310    8.7750   72.6160 C.2    77  ASP77       0.3671
     36  OD1       30.5540    8.5380   73.7450 O.co2  77  ASP77      -0.2456
     37  OD2       31.4570    7.8750   71.8680 O.co2  77  ASP77      -0.2456
     38  N         31.7190   14.9360   75.4150 N.3    80  THR80      -0.1203
     39  CA        32.8700   14.5190   76.2090 C.3    80  THR80       0.1994
     40  C         34.1790   14.8170   75.4840 C.2    80  THR80       0.2617
     41  O         35.1460   15.2880   76.0790 O.2    80  THR80      -0.2717
     42  CB        32.7650   12.9980   76.5540 C.3    80  THR80       0.1784
     43  OG1       31.7590   12.8040   77.5650 O.3    80  THR80      -0.2211
     44  CG2       34.0900   12.4340   77.0520 C.3    80  THR80       0.0376
     45  N         34.1920   14.6090   74.1800 N.am   81  LEU81      -0.1979
     46  CA        35.4020   14.8420   73.4210 C.3    81  LEU81       0.1596
     47  C         35.7020   16.3370   73.3160 C.2    81  LEU81       0.2287
     48  O         36.8800   16.7360   73.2780 O.2    81  LEU81      -0.2864
     49  CB        35.3440   14.1180   72.0740 C.3    81  LEU81       0.0297
     50  CG        36.2190   12.8400   72.0200 C.3    81  LEU81       0.0022
     51  CD1       36.1030   11.9720   73.2910 C.3    81  LEU81       0.0001
     52  CD2       35.9390   12.0190   70.7380 C.3    81  LEU81       0.0001
     53  N         37.6260   17.2380   76.7220 N.3    84  TYR84      -0.1241
     54  CA        39.0130   16.7890   76.7340 C.3    84  TYR84       0.1605
     55  C         39.8720   17.8090   75.9950 C.2    84  TYR84       0.2264
     56  O         40.8540   18.3080   76.5210 O.2    84  TYR84      -0.2867
     57  CB        39.1590   15.4480   76.0180 C.3    84  TYR84       0.0534
     58  CG        38.5600   14.2590   76.7260 C.ar   84  TYR84      -0.0201
     59  CD1       38.5150   14.1970   78.0990 C.ar   84  TYR84      -0.0009
     60  CD2       38.0640   13.1790   76.0060 C.ar   84  TYR84      -0.0009
     61  CE1       38.0000   13.1030   78.7460 C.ar   84  TYR84       0.0417
     62  CE2       37.5370   12.0600   76.6520 C.ar   84  TYR84       0.0417
     63  CZ        37.5070   12.0340   78.0300 C.ar   84  TYR84       0.1957
     64  OH        36.9570   10.9720   78.7250 O.3    84  TYR84      -0.2866
     65  N         32.9830    5.8120   64.2910 N.3    97  ARG97      -0.1245
     66  CA        33.3080    4.5390   64.9190 C.3    97  ARG97       0.1563
     67  C         33.0270    3.4940   63.8490 C.2    97  ARG97       0.2260
     68  O         32.1570    3.7050   62.9970 O.2    97  ARG97      -0.2867
     69  CB        32.3940    4.3010   66.1320 C.3    97  ARG97       0.0307
     70  CG        32.3660    2.8590   66.6640 C.3    97  ARG97       0.0489
     71  CD        31.4470    2.7520   67.8590 C.3    97  ARG97       0.2205
     72  NE        31.9390    3.5740   68.9580 N.pl3  97  ARG97      -0.0865
     73  CZ        31.2090    3.9470   70.0000 C.cat  97  ARG97       0.5346
     74  NH1       29.9450    3.5780   70.0760 N.pl3  97  ARG97       0.1354
     75  NH2       31.7300    4.6940   70.9590 N.pl3  97  ARG97       0.1354
     76  N         33.1720   -0.9980   63.4630 N.3    99  TYR99      -0.1241
     77  CA        33.5530   -2.2600   64.0660 C.3    99  TYR99       0.1605
     78  C         32.9050   -3.3780   63.2800 C.2    99  TYR99       0.2264
     79  O         31.9460   -3.1380   62.5140 O.2    99  TYR99      -0.2867
     80  CB        33.0870   -2.3210   65.5040 C.3    99  TYR99       0.0534
     81  CG        31.6060   -2.1260   65.7100 C.ar   99  TYR99      -0.0201
     82  CD1       30.6840   -3.0820   65.2950 C.ar   99  TYR99      -0.0009
     83  CD2       31.1290   -0.9980   66.3930 C.ar   99  TYR99      -0.0009
     84  CE1       29.3210   -2.9290   65.5610 C.ar   99  TYR99       0.0417
     85  CE2       29.7800   -0.8420   66.6630 C.ar   99  TYR99       0.0417
     86  CZ        28.8880   -1.8040   66.2460 C.ar   99  TYR99       0.1957
     87  OH        27.5580   -1.6190   66.5120 O.3    99  TYR99      -0.2866
     88  N         37.4330   -2.5310   66.4400 N.3   114  HIS114     -0.1241
     89  CA        36.5120   -1.5630   66.9550 C.3   114  HIS114      0.1621
     90  C         37.0730   -0.2760   66.4150 C.2   114  HIS114      0.2264
     91  O         37.0060   -0.0640   65.2150 O.2   114  HIS114     -0.2867
     92  CB        36.4510   -1.5520   68.4650 C.3   114  HIS114      0.0745
     93  CG        35.1690   -0.9740   68.9810 C.ar  114  HIS114      0.0817
     94  ND1       33.9980   -1.7030   69.0350 N.ar  114  HIS114     -0.2268
     95  CD2       34.8550    0.2820   69.3810 C.ar  114  HIS114      0.1154
     96  CE1       33.0180   -0.9200   69.4410 C.ar  114  HIS114      0.1986
     97  NE2       33.5110    0.2860   69.6590 N.ar  114  HIS114     -0.2212
     98  N         37.7210    4.0540   66.9660 N.3   116  TYR116     -0.1241
     99  CA        36.9660    5.2840   66.9500 C.3   116  TYR116      0.1605
    100  C         37.9390    6.3870   66.4990 C.2   116  TYR116      0.2264
    101  O         39.1740    6.2280   66.6300 O.2   116  TYR116     -0.2867
    102  CB        36.5700    5.4900   68.4160 C.3   116  TYR116      0.0534
    103  CG        35.5580    6.5330   68.7450 C.ar  116  TYR116     -0.0201
    104  CD1       35.9310    7.8620   68.9000 C.ar  116  TYR116     -0.0009
    105  CD2       34.2450    6.1790   69.0010 C.ar  116  TYR116     -0.0009
    106  CE1       35.0250    8.8090   69.3300 C.ar  116  TYR116      0.0417
    107  CE2       33.3340    7.1130   69.4260 C.ar  116  TYR116      0.0417
    108  CZ        33.7280    8.4330   69.5880 C.ar  116  TYR116      0.1957
    109  OH        32.8230    9.3760   70.0130 O.3   116  TYR116     -0.2866
    110  N         41.4350    8.1730   67.3620 N.3   123  TYR123     -0.1227
    111  CA        41.3390    8.4960   68.7640 C.3   123  TYR123      0.1736
    112  C         41.8450    7.2600   69.5110 C.2   123  TYR123      0.2595
    113  O         42.9170    7.2980   70.1060 O.2   123  TYR123     -0.2718
    114  CB        39.8990    8.8070   69.1560 C.3   123  TYR123      0.0548
    115  CG        39.7690    9.2290   70.5910 C.ar  123  TYR123     -0.0200
    116  CD1       40.4770   10.3220   71.0780 C.ar  123  TYR123     -0.0009
    117  CD2       38.9420    8.5470   71.4630 C.ar  123  TYR123     -0.0009
    118  CE1       40.3700   10.7180   72.3940 C.ar  123  TYR123      0.0417
    119  CE2       38.8360    8.9400   72.7860 C.ar  123  TYR123      0.0417
    120  CZ        39.5460   10.0270   73.2350 C.ar  123  TYR123      0.1957
    121  OH        39.4390   10.4270   74.5290 O.3   123  TYR123     -0.2866
    122  N         41.1070    6.1520   69.4280 N.am  124  ILE124     -0.1980
    123  CA        41.4750    4.9060   70.1100 C.3   124  ILE124      0.1595
    124  C         40.9620    3.7180   69.2840 C.2   124  ILE124      0.2287
    125  O         39.8450    3.7530   68.7750 O.2   124  ILE124     -0.2864
    126  CB        40.8510    4.8240   71.5610 C.3   124  ILE124      0.0276
    127  CG1       41.6470    3.8600   72.4540 C.3   124  ILE124      0.0022
    128  CG2       39.3920    4.3420   71.5060 C.3   124  ILE124      0.0022
    129  CD1       41.2390    3.9080   73.8980 C.3   124  ILE124      0.0001
    130  N         40.3490    7.5850   77.9480 N.3   143  THR143     -0.1218
    131  CA        39.3800    6.6150   77.4480 C.3   143  THR143      0.1862
    132  C         39.9040    5.1970   77.4900 C.2   143  THR143      0.2287
    133  O         39.1380    4.2540   77.6480 O.2   143  THR143     -0.2866
    134  CB        39.0600    6.9090   75.9980 C.3   143  THR143      0.1770
    135  OG1       38.6370    8.2660   75.8910 O.3   143  THR143     -0.2211
    136  CG2       37.9690    5.9720   75.4820 C.3   143  THR143      0.0375
    137  N         38.3800    2.4680   79.8370 N.3   147  TRP147     -0.1241
    138  CA        37.9300    1.2290   79.2050 C.3   147  TRP147      0.1605
    139  C         38.6140   -0.0390   79.7000 C.2   147  TRP147      0.2264
    140  O         38.0120   -1.1060   79.7210 O.2   147  TRP147     -0.2867
    141  CB        38.0410    1.3110   77.6860 C.3   147  TRP147      0.0550
    142  CG        36.9370    2.0680   77.0550 C.ar  147  TRP147      0.0003
    143  CD1       35.8800    2.6580   77.6890 C.ar  147  TRP147      0.0946
    144  CD2       36.7330    2.2700   75.6590 C.ar  147  TRP147      0.0152
    145  NE1       35.0250    3.2050   76.7700 N.ar  147  TRP147     -0.2442
    146  CE2       35.5210    2.9810   75.5140 C.ar  147  TRP147      0.0810
    147  CE3       37.4480    1.9150   74.5130 C.ar  147  TRP147      0.0012
    148  CZ2       35.0040    3.3430   74.2600 C.ar  147  TRP147      0.0191
    149  CZ3       36.9350    2.2750   73.2610 C.ar  147  TRP147      0.0001
    150  CH2       35.7220    2.9810   73.1490 C.ar  147  TRP147      0.0015
    151  N         37.0370   -1.1520   83.0710 N.3   150  ALA150     -0.1245
    152  CA        35.7260   -1.7330   82.9110 C.3   150  ALA150      0.1562
    153  C         35.7370   -3.0480   82.1510 C.2   150  ALA150      0.2260
    154  O         34.7510   -3.7730   82.1800 O.2   150  ALA150     -0.2867
    155  CB        34.8160   -0.7350   82.2270 C.3   150  ALA150      0.0290
    156  N         35.8980   -3.3590   78.9130 N.3   152  VAL152     -0.1245
    157  CA        35.0420   -3.1690   77.7580 C.3   152  VAL152      0.1561
    158  C         35.6290   -4.0060   76.6340 C.2   152  VAL152      0.2260
    159  O         34.8970   -4.6930   75.9150 O.2   152  VAL152     -0.2867
    160  CB        35.0320   -1.6880   77.3240 C.3   152  VAL152      0.0252
    161  CG1       34.4810   -1.5570   75.8960 C.3   152  VAL152      0.0019
    162  CG2       34.2190   -0.8430   78.3180 C.3   152  VAL152      0.0019
    163  N         34.3980   -7.4210   76.3510 N.3   155  GLN155     -0.1231
    164  CA        32.9590   -7.5110   76.1190 C.3   155  GLN155      0.1698
    165  C         32.7060   -7.4140   74.6070 C.2   155  GLN155      0.2592
    166  O         31.6290   -7.7660   74.1060 O.2   155  GLN155     -0.2718
    167  CB        32.2530   -6.3310   76.7700 C.3   155  GLN155      0.0381
    168  CG        31.7510   -6.4990   78.2010 C.3   155  GLN155      0.0905
    169  CD        30.7120   -5.4260   78.4810 C.2   155  GLN155      0.2608
    170  OE1       29.7330   -5.6320   79.1860 O.2   155  GLN155     -0.2717
    171  NE2       30.8980   -4.2880   77.8630 N.am  155  GLN155     -0.0878
    172  N         33.6430   -6.7650   73.9230 N.am  156  LEU156     -0.1980
    173  CA        33.5610   -6.5970   72.4800 C.3   156  LEU156      0.1596
    174  C         34.0360   -7.8760   71.8730 C.2   156  LEU156      0.2287
    175  O         33.3860   -8.4110   70.9870 O.2   156  LEU156     -0.2864
    176  CB        34.4530   -5.4580   71.9930 C.3   156  LEU156      0.0297
    177  CG        33.9110   -4.0340   71.9340 C.3   156  LEU156      0.0022
    178  CD1       32.6670   -3.8460   72.7580 C.3   156  LEU156      0.0001
    179  CD2       35.0000   -3.1100   72.4190 C.3   156  LEU156      0.0001
@<TRIPOS>BOND
     1    79    78    2
     2    68    67    2
     3    78    77    1
     4    76    77    1
     5    67    66    1
     6    77    80    1
     7    65    66    1
     8    66    69    1
     9    91    90    2
    10    82    84   ar
    11    82    81   ar
    12    80    81    1
    13    84    86   ar
    14    81    83   ar
    15    69    70    1
    16    86    87    1
    17    86    85   ar
    18    83    85   ar
    19    90    89    1
    20    88    89    1
    21   100   101    2
    22   100    99    1
    23    70    71    1
    24    99    98    1
    25    99   102    1
    26    89    92    1
    27   110   111    1
    28    71    72    1
    29    13    11   ar
    30    13    15   ar
    31    10    11    1
    32    10     7    1
    33    11    12   ar
    34    15    14   ar
    35   102   103    1
    36    92    93    1
    37   103   104   ar
    38   103   105   ar
    39   111   114    1
    40   111   112    1
    41   125   124    2
    42   104   106   ar
    43    72    73    2
    44    93    94   ar
    45    93    95   ar
    46    14    12   ar
    47   105   107   ar
    48    94    96   ar
    49   114   115    1
    50   124   123    1
    51     8     9    2
    52     8     7    1
    53   106   108   ar
    54    95    97   ar
    55   107   108   ar
    56   122   112   am
    57   122   123    1
    58    96    97   ar
    59   112   113    2
    60     7     6    1
    61   108   109    1
    62    73    74    1
    63    73    75    1
    64   123   126    1
    65     6     3   am
    66   115   116   ar
    67   115   117   ar
    68     1     2    1
    69    52    50    1
    70   175   174    2
    71   116   118   ar
    72     3     2    1
    73     3     4    2
    74   117   119   ar
    75   128   126    1
    76   126   127    1
    77     2     5    1
    78    37    35   ar
    79   174   173    1
    80   177   176    1
    81   177   179    1
    82   177   178    1
    83   176   173    1
    84    50    49    1
    85    50    51    1
    86    49    46    1
    87    34    35    1
    88    34    31    1
    89    18    19    2
    90    18    17    1
    91   118   120   ar
    92   127   129    1
    93   173   172    1
    94    35    36   ar
    95    32    33    2
    96    32    31    1
    97    16    17    1
    98    20    17    1
    99    20    22    1
   100    20    21    1
   101   119   120   ar
   102   150   149   ar
   103   150   148   ar
   104    31    30    1
   105   120   121    1
   106   149   147   ar
   107    48    47    2
   108    47    46    1
   109    46    45    1
   110    23    24    1
   111    30    25   am
   112   172   165   am
   113   166   165    2
   114    45    40   am
   115   148   146   ar
   116    25    24    1
   117    25    26    2
   118   147   144   ar
   119   165   164    1
   120    24    27    1
   121    38    39    1
   122   136   134    1
   123    40    41    2
   124    40    39    1
   125   146   144   ar
   126   146   145   ar
   127    27    29    1
   128    27    28    1
   129   144   142   ar
   130   135   134    1
   131   161   160    1
   132   159   158    2
   133    55    56    2
   134    55    54    1
   135   134   131    1
   136    60    62   ar
   137    60    58   ar
   138    57    58    1
   139    57    54    1
   140   164   163    1
   141   164   167    1
   142    39    42    1
   143    42    44    1
   144    42    43    1
   145   158   157    1
   146    62    63   ar
   147    53    54    1
   148    58    59   ar
   149   167   168    1
   150   145   143   ar
   151   142   141    1
   152   142   143   ar
   153   160   157    1
   154   160   162    1
   155   131   132    1
   156   131   130    1
   157   132   133    2
   158   141   138    1
   159   157   156    1
   160   171   169   am
   161    63    64    1
   162    63    61   ar
   163    59    61   ar
   164   168   169    1
   165   169   170    2
   166   138   139    1
   167   138   137    1
   168   139   140    2
   169   153   154    2
   170   153   152    1
   171   155   152    1
   172   152   151    1
