@<TRIPOS>MOLECULE
tmp/1b0uA00.pdb
 114 109 0 0 0
SMALL
GASTEIGER

@<TRIPOS>ATOM
      1  N         46.7940   35.0200   46.2890 N.3    12  TYR12      -0.1241
      2  CA        48.1720   35.4430   46.0300 C.3    12  TYR12       0.1605
      3  C         48.8460   34.0750   45.9070 C.2    12  TYR12       0.2264
      4  O         49.0450   33.3670   46.8960 O.2    12  TYR12      -0.2867
      5  CB        48.7910   36.2260   47.1930 C.3    12  TYR12       0.0534
      6  CG        48.1400   37.5790   47.4450 C.ar   12  TYR12      -0.0201
      7  CD1       46.9900   37.6810   48.2570 C.ar   12  TYR12      -0.0009
      8  CD2       48.6740   38.7540   46.9010 C.ar   12  TYR12      -0.0009
      9  CE1       46.3940   38.9340   48.5170 C.ar   12  TYR12       0.0417
     10  CE2       48.0810   39.9960   47.1600 C.ar   12  TYR12       0.0417
     11  CZ        46.9550   40.0610   47.9620 C.ar   12  TYR12       0.1957
     12  OH        46.4000   41.2930   48.1720 O.3    12  TYR12      -0.2866
     13  N         47.5180   31.0430   47.9540 N.3    15  HIS15      -0.1241
     14  CA        46.8500   31.5240   49.1590 C.3    15  HIS15       0.1621
     15  C         45.5620   32.2880   48.8410 C.2    15  HIS15       0.2264
     16  O         45.6410   33.4380   48.4070 O.2    15  HIS15      -0.2867
     17  CB        47.7950   32.4570   49.9140 C.3    15  HIS15       0.0745
     18  CG        47.2070   32.9800   51.1820 C.ar   15  HIS15       0.0817
     19  ND1       47.6440   34.1450   51.7680 N.ar   15  HIS15      -0.2268
     20  CD2       46.2100   32.5110   51.9640 C.ar   15  HIS15       0.1154
     21  CE1       46.9340   34.3690   52.8600 C.ar   15  HIS15       0.1986
     22  NE2       46.0620   33.3920   53.0040 N.ar   15  HIS15      -0.2212
     23  N         42.7330   34.6140   49.6440 N.3    17  VAL17      -0.1245
     24  CA        42.4620   35.6230   50.6640 C.3    17  VAL17       0.1561
     25  C         41.0170   36.0850   50.6640 C.2    17  VAL17       0.2260
     26  O         40.3790   36.1260   51.7150 O.2    17  VAL17      -0.2867
     27  CB        43.4400   36.7580   50.4390 C.3    17  VAL17       0.0252
     28  CG1       43.0660   38.0300   51.2750 C.3    17  VAL17       0.0019
     29  CG2       44.8310   36.2430   50.8820 C.3    17  VAL17       0.0019
     30  N         39.0390   42.5800   61.2680 N.3    36  SER36      -0.1202
     31  CA        40.3730   42.4270   61.7750 C.3    36  SER36       0.2020
     32  C         41.4520   42.6310   60.7010 C.2    36  SER36       0.2619
     33  O         41.2270   42.3950   59.5090 O.2    36  SER36      -0.2717
     34  CB        40.5810   41.0050   62.3590 C.3    36  SER36       0.2103
     35  OG        39.7190   40.7720   63.4840 O.3    36  SER36      -0.2182
     36  N         42.6460   43.0440   61.1180 N.am   37  SER37      -0.1937
     37  CA        43.7770   43.1130   60.1970 C.3    37  SER37       0.2055
     38  C         44.0470   41.6670   59.7190 C.2    37  SER37       0.2644
     39  O         44.2500   40.7490   60.5060 O.2    37  SER37      -0.2714
     40  CB        45.0000   43.6750   60.9450 C.3    37  SER37       0.2130
     41  OG        46.1730   43.5490   60.1700 O.3    37  SER37      -0.2179
     42  N         44.0140   41.4680   58.4100 N.am   38  GLY38      -0.1939
     43  CA        44.2110   40.1450   57.8390 C.3    38  GLY38       0.2014
     44  C         42.9300   39.5900   57.2280 C.2    38  GLY38       0.2640
     45  O         42.9720   38.6220   56.4570 O.2    38  GLY38      -0.2714
     46  N         41.7860   40.2340   57.5020 N.am   39  SER39      -0.1935
     47  CA        40.5090   39.7770   56.9410 C.3    39  SER39       0.2055
     48  C         40.4450   39.9690   55.4440 C.2    39  SER39       0.2644
     49  O         39.6290   39.2900   54.8000 O.2    39  SER39      -0.2714
     50  CB        39.3180   40.4570   57.6110 C.3    39  SER39       0.2130
     51  OG        39.3760   41.8540   57.5160 O.3    39  SER39      -0.2179
     52  N         41.3250   40.8100   54.8850 N.am   40  GLY40      -0.1939
     53  CA        41.4030   41.0350   53.4410 C.3    40  GLY40       0.2014
     54  C         40.8020   42.3440   52.9210 C.2    40  GLY40       0.2639
     55  O         40.4590   42.4740   51.7400 O.2    40  GLY40      -0.2714
     56  N         40.7020   43.3350   53.8030 N.am   41  LYS41      -0.1963
     57  CA        40.0780   44.6130   53.4440 C.3    41  LYS41       0.1728
     58  C         40.8310   45.3200   52.3420 C.2    41  LYS41       0.2617
     59  O         40.2260   45.8280   51.3690 O.2    41  LYS41      -0.2715
     60  CB        40.0420   45.5240   54.7020 C.3    41  LYS41       0.0311
     61  CG        39.2530   44.8750   55.8360 C.3    41  LYS41       0.0038
     62  CD        39.4020   45.6500   57.1900 C.3    41  LYS41       0.0206
     63  CE        40.8370   45.5600   57.7640 C.3    41  LYS41       0.1093
     64  NZ        40.9760   46.2450   59.1010 N.3    41  LYS41      -0.1314
     65  N         42.1430   45.4170   52.4830 N.am   42  SER42      -0.1936
     66  CA        42.9240   46.1140   51.4630 C.3    42  SER42       0.2055
     67  C         42.9070   45.3600   50.1330 C.2    42  SER42       0.2643
     68  O         42.9280   45.9970   49.0520 O.2    42  SER42      -0.2714
     69  CB        44.3880   46.2970   51.9340 C.3    42  SER42       0.2130
     70  OG        44.4730   47.2460   53.0100 O.3    42  SER42      -0.2179
     71  N         42.9450   44.0300   50.2200 N.am   43  THR43      -0.1950
     72  CA        42.8710   43.2220   48.9970 C.3    43  THR43       0.1897
     73  C         41.5430   43.5010   48.2830 C.2    43  THR43       0.2313
     74  O         41.5340   43.6100   47.0490 O.2    43  THR43      -0.2863
     75  CB        43.0130   41.7260   49.3400 C.3    43  THR43       0.1794
     76  OG1       44.2970   41.4930   49.9330 O.3    43  THR43      -0.2208
     77  CG2       42.9090   40.8490   48.0720 C.3    43  THR43       0.0378
     78  N         45.1500   45.0170   42.2430 N.3    52  GLU52      -0.1245
     79  CA        45.3920   43.5850   42.4670 C.3    52  GLU52       0.1567
     80  C         44.4320   42.8590   41.5290 C.2    52  GLU52       0.2260
     81  O         43.3710   43.3870   41.2050 O.2    52  GLU52      -0.2867
     82  CB        45.1590   43.1400   43.9260 C.3    52  GLU52       0.0388
     83  CG        46.2150   43.6270   44.9180 C.3    52  GLU52       0.1160
     84  CD        47.6200   43.1130   44.6380 C.2    52  GLU52       0.3649
     85  OE1       47.7960   42.0200   44.0930 O.co2  52  GLU52      -0.2457
     86  OE2       48.5880   43.8110   45.0090 O.co2  52  GLU52      -0.2457
     87  N         46.7400   54.3500   52.6540 N.3    96  GLN96      -0.1245
     88  CA        47.3170   54.5590   53.9700 C.3    96  GLN96       0.1566
     89  C         48.5330   55.4540   53.7900 C.2    96  GLN96       0.2260
     90  O         48.8310   56.2390   54.6830 O.2    96  GLN96      -0.2867
     91  CB        47.7660   53.2370   54.6400 C.3    96  GLN96       0.0367
     92  CG        46.6480   52.1980   54.8450 C.3    96  GLN96       0.0905
     93  CD        46.5150   51.2320   53.6720 C.2    96  GLN96       0.2608
     94  OE1       46.6750   51.5960   52.4960 O.2    96  GLN96      -0.2717
     95  NE2       46.1810   49.9900   53.9950 N.am   96  GLN96      -0.0878
     96  N         41.8830   53.1040   55.0100 N.3   175  GLU175     -0.1245
     97  CA        42.4490   53.5650   56.3160 C.3   175  GLU175      0.1567
     98  C         43.2660   54.8510   56.1360 C.2   175  GLU175      0.2260
     99  O         44.4470   54.9470   56.5360 O.2   175  GLU175     -0.2867
    100  CB        43.3610   52.4710   56.8990 C.3   175  GLU175      0.0388
    101  CG        42.6260   51.2050   57.2620 C.3   175  GLU175      0.1160
    102  CD        43.5510   50.1650   57.8590 C.2   175  GLU175      0.3649
    103  OE1       44.7100   50.5060   58.1290 O.co2 175  GLU175     -0.2457
    104  OE2       43.1190   49.0520   58.0430 O.co2 175  GLU175     -0.2457
    105  N         39.4950   51.6740   60.8970 N.3   207  HIS207     -0.1241
    106  CA        39.5020   51.2140   62.2950 C.3   207  HIS207      0.1621
    107  C         38.7640   52.2220   63.1900 C.2   207  HIS207      0.2264
    108  O         38.5380   51.9250   64.3660 O.2   207  HIS207     -0.2867
    109  CB        40.9100   51.1740   62.8930 C.3   207  HIS207      0.0745
    110  CG        41.7410   50.0700   62.3560 C.ar  207  HIS207      0.0817
    111  ND1       42.9780   50.2700   61.7710 N.ar  207  HIS207     -0.2268
    112  CD2       41.4960   48.7470   62.3120 C.ar  207  HIS207      0.1154
    113  CE1       43.4570   49.0950   61.3870 C.ar  207  HIS207      0.1986
    114  NE2       42.5770   48.1570   61.6990 N.ar  207  HIS207     -0.2212
@<TRIPOS>BOND
     1    81    80    2
     2    80    79    1
     3    78    79    1
     4    79    82    1
     5    82    83    1
     6    85    84   ar
     7    84    83    1
     8    84    86   ar
     9     3     2    1
    10     3     4    2
    11     2     1    1
    12     2     5    1
    13     8    10   ar
    14     8     6   ar
    15    74    73    2
    16    10    11   ar
    17     5     6    1
    18     6     7   ar
    19    13    14    1
    20    11    12    1
    21    11     9   ar
    22    77    75    1
    23     7     9   ar
    24    73    72    1
    25    16    15    2
    26    15    14    1
    27    72    75    1
    28    72    71    1
    29    68    67    2
    30    14    17    1
    31    75    76    1
    32    23    24    1
    33    17    18    1
    34    67    71   am
    35    67    66    1
    36    27    24    1
    37    27    29    1
    38    27    28    1
    39    25    24    1
    40    25    26    2
    41    18    19   ar
    42    18    20   ar
    43    59    58    2
    44    66    69    1
    45    66    65    1
    46    55    54    2
    47    19    21   ar
    48    69    70    1
    49    20    22   ar
    50    58    65   am
    51    58    57    1
    52    94    93    2
    53    87    88    1
    54    21    22   ar
    55    54    53    1
    56    54    56   am
    57    53    52    1
    58    57    56    1
    59    57    60    1
    60    93    95   am
    61    93    92    1
    62    89    88    1
    63    89    90    2
    64    88    91    1
    65    91    92    1
    66    60    61    1
    67    49    48    2
    68    52    48   am
    69    96    97    1
    70    48    47    1
    71    61    62    1
    72    98    97    1
    73    98    99    2
    74    97   100    1
    75    45    44    2
    76   100   101    1
    77    47    46    1
    78    47    50    1
    79    62    63    1
    80    44    46   am
    81    44    43    1
    82   101   102    1
    83    51    50    1
    84    63    64    1
    85    43    42    1
    86   102   104   ar
    87   102   103   ar
    88    42    38   am
    89    33    32    2
    90    38    37    1
    91    38    39    2
    92    41    40    1
    93    37    40    1
    94    37    36    1
    95    32    36   am
    96    32    31    1
    97   105   106    1
    98    30    31    1
    99   113   114   ar
   100   113   111   ar
   101   114   112   ar
   102   111   110   ar
   103    31    34    1
   104   106   109    1
   105   106   107    1
   106   112   110   ar
   107   110   109    1
   108    34    35    1
   109   107   108    2
