@<TRIPOS>MOLECULE
tmp/1b12B00.pdb
 99 96 0 0 0
SMALL
GASTEIGER

@<TRIPOS>ATOM
      1  N        -10.2030   34.0290   22.3980 N.3     8  ILE8       -0.1231
      2  CA        -8.7600   34.0190   22.3140 C.3     8  ILE8        0.1678
      3  C         -8.5340   34.1090   20.8120 C.2     8  ILE8        0.2434
      4  O         -9.0550   33.2970   20.0590 O.2     8  ILE8       -0.2733
      5  CB        -8.2040   32.7040   22.8460 C.3     8  ILE8        0.0265
      6  CG1       -8.3950   32.6560   24.3640 C.3     8  ILE8        0.0019
      7  CG2       -6.7490   32.5470   22.4220 C.3     8  ILE8        0.0020
      8  CD1       -7.6290   33.7170   25.1030 C.3     8  ILE8        0.0001
      9  N         -7.7760   35.1150   20.3470 N.am    9  PRO9       -0.2718
     10  CA        -7.5250   35.2700   18.9090 C.3     9  PRO9        0.1535
     11  C         -6.3950   34.4700   18.2470 C.2     9  PRO9        0.2599
     12  O         -6.4100   34.2570   17.0280 O.2     9  PRO9       -0.2715
     13  CB        -7.2990   36.7720   18.7740 C.3     9  PRO9        0.0310
     14  CG        -6.5730   37.0860   20.0310 C.3     9  PRO9        0.0237
     15  CD        -7.3680   36.3240   21.0770 C.3     9  PRO9        0.0939
     16  N         -5.4100   34.0300   19.0260 N.am   10  SER10      -0.1950
     17  CA        -4.2800   33.2840   18.4440 C.3    10  SER10       0.1924
     18  C         -3.9640   31.9840   19.1810 C.2    10  SER10       0.2314
     19  O         -4.3540   31.8030   20.3370 O.2    10  SER10      -0.2863
     20  CB        -3.0340   34.1720   18.4220 C.3    10  SER10       0.2116
     21  OG        -3.3530   35.3780   17.7590 O.3    10  SER10      -0.2180
     22  N         -0.9790   30.6410   20.3180 N.3    12  SER12      -0.1202
     23  CA         0.3050   30.4580   20.9750 C.3    12  SER12       0.2020
     24  C          0.2420   29.7410   22.3320 C.2    12  SER12       0.2618
     25  O          1.2830   29.3820   22.8830 O.2    12  SER12      -0.2717
     26  CB         1.0470   31.7950   21.0850 C.3    12  SER12       0.2103
     27  OG         0.5570   32.6680   22.0900 O.3    12  SER12      -0.2182
     28  N         -0.9680   29.5280   22.8600 N.am   13  MET13      -0.1979
     29  CA        -1.1350   28.8030   24.1200 C.3    13  MET13       0.1605
     30  C         -1.7830   27.4220   23.9260 C.2    13  MET13       0.2287
     31  O         -2.2390   26.8100   24.8950 O.2    13  MET13      -0.2864
     32  CB        -1.9620   29.6110   25.1320 C.3    13  MET13       0.0413
     33  CG        -1.1510   30.6130   25.9440 C.3    13  MET13       0.0598
     34  SD         0.1690   29.8400   26.9940 S.3    13  MET13      -0.1393
     35  CE        -0.8230   29.0440   28.2880 C.3    13  MET13       0.0692
     36  N         -5.0400   26.6880   25.5420 N.3    17  LEU17      -0.1245
     37  CA        -6.0270   27.6810   25.1100 C.3    17  LEU17       0.1561
     38  C         -6.0430   27.5900   23.6040 C.2    17  LEU17       0.2260
     39  O         -4.9840   27.5610   22.9780 O.2    17  LEU17      -0.2867
     40  CB        -5.6220   29.1020   25.4890 C.3    17  LEU17       0.0270
     41  CG        -5.7530   29.4260   26.9690 C.3    17  LEU17       0.0019
     42  CD1       -5.3220   30.8620   27.1710 C.3    17  LEU17       0.0001
     43  CD2       -7.2050   29.1860   27.4290 C.3    17  LEU17       0.0001
     44  N         -3.0990   42.9610   24.9280 N.3    48  ASP48      -0.1225
     45  CA        -3.0030   42.0180   26.0350 C.3    48  ASP48       0.1805
     46  C         -2.4530   40.6980   25.5080 C.2    48  ASP48       0.2598
     47  O         -2.7960   40.2710   24.4060 O.2    48  ASP48      -0.2718
     48  CB        -4.3710   41.7610   26.6730 C.3    48  ASP48       0.1424
     49  CG        -4.7780   42.8480   27.6450 C.2    48  ASP48       0.3668
     50  OD1       -4.0000   43.1610   28.5650 O.co2  48  ASP48      -0.2456
     51  OD2       -5.8860   43.3870   27.4950 O.co2  48  ASP48      -0.2456
     52  N         -1.5810   40.0770   26.2950 N.am   49  TYR49      -0.1962
     53  CA        -0.9990   38.7870   25.9350 C.3    49  TYR49       0.1771
     54  C         -1.3340   37.7980   27.0380 C.2    49  TYR49       0.2619
     55  O         -1.6210   38.1820   28.1800 O.2    49  TYR49      -0.2715
     56  CB         0.5310   38.8750   25.8050 C.3    49  TYR49       0.0574
     57  CG         1.0600   39.0660   24.4000 C.ar   49  TYR49      -0.0198
     58  CD1        0.4340   39.9350   23.5010 C.ar   49  TYR49      -0.0009
     59  CD2        2.2130   38.4010   23.9760 C.ar   49  TYR49      -0.0009
     60  CE1        0.9410   40.1330   22.2190 C.ar   49  TYR49       0.0417
     61  CE2        2.7280   38.5910   22.6970 C.ar   49  TYR49       0.0417
     62  CZ         2.0870   39.4570   21.8210 C.ar   49  TYR49       0.1957
     63  OH         2.5790   39.6240   20.5420 O.3    49  TYR49      -0.2866
     64  N         -1.3020   36.5200   26.6830 N.am   50  ILE50      -0.1963
     65  CA        -1.5550   35.4510   27.6410 C.3    50  ILE50       0.1727
     66  C         -0.4430   34.4400   27.3960 C.2    50  ILE50       0.2616
     67  O         -0.2530   33.9750   26.2760 O.2    50  ILE50      -0.2715
     68  CB        -2.9010   34.7730   27.4050 C.3    50  ILE50       0.0290
     69  CG1       -4.0390   35.7770   27.6660 C.3    50  ILE50       0.0022
     70  CG2       -3.0340   33.5690   28.3290 C.3    50  ILE50       0.0023
     71  CD1       -5.4190   35.2060   27.3810 C.3    50  ILE50       0.0001
     72  N          0.3070   34.1400   28.4450 N.am   51  LYS51      -0.1977
     73  CA         1.4130   33.2000   28.3650 C.3    51  LYS51       0.1596
     74  C          1.4750   32.5200   29.7070 C.2    51  LYS51       0.2287
     75  O          0.7390   32.8860   30.6360 O.2    51  LYS51      -0.2864
     76  CB         2.7380   33.9330   28.1330 C.3    51  LYS51       0.0298
     77  CG         2.8300   34.7200   26.8450 C.3    51  LYS51       0.0038
     78  CD         2.8580   33.8250   25.6240 C.3    51  LYS51       0.0206
     79  CE         2.9900   34.6560   24.3800 C.3    51  LYS51       0.1093
     80  NZ         3.0580   33.8680   23.1370 N.3    51  LYS51      -0.1314
     81  N          5.3280   28.0860   18.1790 N.3   174  ASN174     -0.1225
     82  CA         4.4240   29.0740   17.5710 C.3   174  ASN174      0.1785
     83  C          4.0820   30.1040   18.6170 C.2   174  ASN174      0.2598
     84  O          2.9170   30.4400   18.8200 O.2   174  ASN174     -0.2718
     85  CB         3.1320   28.4040   17.0920 C.3   174  ASN174      0.1169
     86  CG         3.3730   27.4500   15.9540 C.2   174  ASN174      0.2627
     87  OD1        3.8240   27.8610   14.8840 O.2   174  ASN174     -0.2716
     88  ND2        3.0970   26.1550   16.1780 N.am  174  ASN174     -0.0877
     89  N          5.1090   30.6240   19.2720 N.am  175  SER175     -0.1938
     90  CA         4.9100   31.5740   20.3390 C.3   175  SER175      0.2055
     91  C          6.0060   32.6290   20.3940 C.2   175  SER175      0.2642
     92  O          7.1890   32.2920   20.5070 O.2   175  SER175     -0.2714
     93  CB         4.8720   30.8110   21.6680 C.3   175  SER175      0.2130
     94  OG         4.7510   31.6960   22.7600 O.3   175  SER175     -0.2179
     95  N          5.6120   33.8980   20.3000 N.am  176  ALA176     -0.1977
     96  CA         6.5620   35.0030   20.3870 C.3   176  ALA176      0.1597
     97  C          6.4740   35.3920   21.8560 C.2   176  ALA176      0.2287
     98  O          5.6040   36.1620   22.2610 O.2   176  ALA176     -0.2864
     99  CB         6.1260   36.1630   19.4910 C.3   176  ALA176      0.0319
@<TRIPOS>BOND
     1    87    86    2
     2    86    88   am
     3    86    85    1
     4    12    11    2
     5    85    82    1
     6    82    81    1
     7    82    83    1
     8    21    20    1
     9    11    10    1
    10    11    16   am
    11    20    17    1
    12    17    16    1
    13    17    18    1
    14    83    84    2
    15    83    89   am
    16    13    10    1
    17    13    14    1
    18    10     9    1
    19    18    19    2
    20    89    90    1
    21    99    96    1
    22    14    15    1
    23     4     3    2
    24    95    96    1
    25    95    91   am
    26    22    23    1
    27    90    91    1
    28    90    93    1
    29     9     3   am
    30     9    15    1
    31    96    97    1
    32    91    92    2
    33    63    62    1
    34     3     2    1
    35    23    26    1
    36    23    24    1
    37    26    27    1
    38    93    94    1
    39    62    60   ar
    40    62    61   ar
    41    97    98    2
    42    60    58   ar
    43     2     1    1
    44     2     5    1
    45    24    28   am
    46    24    25    2
    47     7     5    1
    48    61    59   ar
    49     5     6    1
    50    28    29    1
    51    39    38    2
    52    80    79    1
    53    58    57   ar
    54    38    37    1
    55    30    29    1
    56    30    31    2
    57    59    57   ar
    58    29    32    1
    59     6     8    1
    60    79    78    1
    61    57    56    1
    62    47    46    2
    63    44    45    1
    64    37    40    1
    65    37    36    1
    66    32    33    1
    67    40    41    1
    68    46    45    1
    69    46    52   am
    70    78    77    1
    71    56    53    1
    72    53    52    1
    73    53    54    1
    74    33    34    1
    75    45    48    1
    76    67    66    2
    77    48    49    1
    78    64    54   am
    79    64    65    1
    80    77    76    1
    81    41    42    1
    82    41    43    1
    83    34    35    1
    84    54    55    2
    85    71    69    1
    86    66    65    1
    87    66    72   am
    88    68    65    1
    89    68    69    1
    90    68    70    1
    91    51    49   ar
    92    49    50   ar
    93    76    73    1
    94    73    72    1
    95    73    74    1
    96    74    75    2
