@<TRIPOS>MOLECULE
tmp/1b1hA00.pdb
 258 251 0 0 0
SMALL
GASTEIGER

@<TRIPOS>ATOM
      1  N          8.8870   23.9890   12.0010 N.3    32  GLU32      -0.1231
      2  CA         8.7770   22.9530   13.0380 C.3    32  GLU32       0.1699
      3  C          7.3860   22.3890   13.1380 C.2    32  GLU32       0.2593
      4  O          7.1560   21.5820   14.0510 O.2    32  GLU32      -0.2718
      5  CB         9.3090   23.5220   14.3580 C.3    32  GLU32       0.0402
      6  CG         8.7500   24.8640   14.7120 C.3    32  GLU32       0.1161
      7  CD         9.3750   25.6460   15.8450 C.2    32  GLU32       0.3649
      8  OE1        9.8740   25.0780   16.8400 O.co2  32  GLU32      -0.2457
      9  OE2        9.2950   26.8840   15.7210 O.co2  32  GLU32      -0.2457
     10  N          6.4930   22.7290   12.1970 N.am   33  GLY33      -0.1942
     11  CA         5.1340   22.1970   12.3710 C.3    33  GLY33       0.2014
     12  C          4.6340   21.3400   11.2180 C.2    33  GLY33       0.2638
     13  O          5.2470   21.1430   10.1870 O.2    33  GLY33      -0.2714
     14  N          3.4170   20.8220   11.4170 N.am   34  VAL34      -0.1977
     15  CA         2.7320   19.9810   10.4430 C.3    34  VAL34       0.1596
     16  C          2.3890   20.7150    9.1640 C.2    34  VAL34       0.2287
     17  O          2.7410   20.2420    8.0680 O.2    34  VAL34      -0.2864
     18  CB         1.5130   19.2840   11.0800 C.3    34  VAL34       0.0276
     19  CG1        0.7050   18.5190   10.0330 C.3    34  VAL34       0.0022
     20  CG2        2.0210   18.2820   12.1340 C.3    34  VAL34       0.0022
     21  N          5.6060   21.2310    7.3090 N.3    37  SER37      -0.1217
     22  CA         6.1620   19.9710    6.8060 C.3    37  SER37       0.1889
     23  C          5.3630   19.4470    5.6240 C.2    37  SER37       0.2288
     24  O          5.9200   18.8320    4.7240 O.2    37  SER37      -0.2866
     25  CB         6.2480   18.9230    7.9240 C.3    37  SER37       0.2089
     26  OG         7.1620   19.4250    8.9320 O.3    37  SER37      -0.2183
     27  N          7.6130   18.6200    2.2260 N.3    41  ARG41      -0.1245
     28  CA         7.8060   17.3370    1.5560 C.3    41  ARG41       0.1563
     29  C          7.6390   17.4120    0.0430 C.2    41  ARG41       0.2260
     30  O          8.2540   16.6030   -0.6680 O.2    41  ARG41      -0.2867
     31  CB         6.8370   16.2970    2.1510 C.3    41  ARG41       0.0307
     32  CG         7.3170   15.7390    3.4940 C.3    41  ARG41       0.0489
     33  CD         6.4600   14.5690    3.9410 C.3    41  ARG41       0.2205
     34  NE         5.0420   14.9010    4.0750 N.pl3  41  ARG41      -0.0865
     35  CZ         4.4660   15.5220    5.0870 C.cat  41  ARG41       0.5346
     36  NH1        5.1610   15.9250    6.1570 N.pl3  41  ARG41       0.1354
     37  NH2        3.1520   15.7320    5.0490 N.pl3  41  ARG41       0.1354
     38  N         14.9940   23.2150   15.1510 N.3   109  TYR109     -0.1241
     39  CA        15.3180   21.8150   15.0390 C.3   109  TYR109      0.1605
     40  C         16.8120   21.5280   15.0710 C.2   109  TYR109      0.2264
     41  O         17.2640   20.4180   14.7600 O.2   109  TYR109     -0.2867
     42  CB        14.6600   21.1500   13.8370 C.3   109  TYR109      0.0534
     43  CG        13.3570   20.4320   14.1290 C.ar  109  TYR109     -0.0201
     44  CD1       13.3880   19.1580   14.7000 C.ar  109  TYR109     -0.0009
     45  CD2       12.1130   20.9680   13.8240 C.ar  109  TYR109     -0.0009
     46  CE1       12.2170   18.4630   14.9760 C.ar  109  TYR109      0.0417
     47  CE2       10.9400   20.2780   14.0920 C.ar  109  TYR109      0.0417
     48  CZ        11.0050   19.0160   14.6510 C.ar  109  TYR109      0.1957
     49  OH         9.8440   18.2950   14.8840 O.3   109  TYR109     -0.2866
     50  N         12.6090   13.6110    7.8150 N.3   161  HIS161     -0.1227
     51  CA        12.1760   14.9070    8.3560 C.3   161  HIS161      0.1737
     52  C         12.7040   16.0960    7.6120 C.2   161  HIS161      0.2438
     53  O         13.8360   16.0520    7.0960 O.2   161  HIS161     -0.2733
     54  CB        12.6430   14.8960    9.8250 C.3   161  HIS161      0.0758
     55  CG        12.0840   16.0120   10.6400 C.ar  161  HIS161      0.0818
     56  ND1       12.8080   17.1540   10.9550 N.ar  161  HIS161     -0.2268
     57  CD2       10.8380   16.1500   11.1720 C.ar  161  HIS161      0.1154
     58  CE1       12.0120   17.9590   11.6490 C.ar  161  HIS161      0.1986
     59  NE2       10.8310   17.3690   11.8210 N.ar  161  HIS161     -0.2212
     60  N         11.9580   17.1980    7.5060 N.am  162  PRO162     -0.2729
     61  CA        12.3760   18.3610    6.7500 C.3   162  PRO162      0.1401
     62  C         13.6530   19.0070    7.2150 C.2   162  PRO162      0.2269
     63  O         14.4510   19.4750    6.3720 O.2   162  PRO162     -0.2865
     64  CB        11.2300   19.3670    6.8760 C.3   162  PRO162      0.0296
     65  CG        10.0340   18.5150    7.1480 C.3   162  PRO162      0.0237
     66  CD        10.5660   17.3790    8.0160 C.3   162  PRO162      0.0939
     67  N         -7.7810   19.7610    5.8080 N.3   245  TYR245     -0.1227
     68  CA        -6.6760   19.5750    6.7600 C.3   245  TYR245      0.1736
     69  C         -7.1860   18.5060    7.7340 C.2   245  TYR245      0.2595
     70  O         -8.3740   18.1440    7.6980 O.2   245  TYR245     -0.2718
     71  CB        -6.3470   20.8670    7.4770 C.3   245  TYR245      0.0548
     72  CG        -5.1670   20.7920    8.4170 C.ar  245  TYR245     -0.0200
     73  CD1       -3.9090   20.4470    7.9240 C.ar  245  TYR245     -0.0009
     74  CD2       -5.3140   21.0880    9.7620 C.ar  245  TYR245     -0.0009
     75  CE1       -2.8220   20.3880    8.7760 C.ar  245  TYR245      0.0417
     76  CE2       -4.2240   21.0220   10.6250 C.ar  245  TYR245      0.0417
     77  CZ        -2.9930   20.6730   10.1170 C.ar  245  TYR245      0.1957
     78  OH        -1.9310   20.5870   10.9850 O.3   245  TYR245     -0.2866
     79  N         -6.3150   17.9700    8.5910 N.am  246  ASN246     -0.1960
     80  CA        -6.7750   16.8970    9.4750 C.3   246  ASN246      0.1819
     81  C         -6.9600   17.3890   10.8950 C.2   246  ASN246      0.2621
     82  O         -6.3030   16.9490   11.8240 O.2   246  ASN246     -0.2715
     83  CB        -5.8760   15.6760    9.3950 C.3   246  ASN246      0.1195
     84  CG        -4.4100   15.9810    9.5890 C.2   246  ASN246      0.2630
     85  OD1       -3.9600   17.1220    9.5450 O.2   246  ASN246     -0.2716
     86  ND2       -3.5940   14.9580    9.8030 N.am  246  ASN246     -0.0877
     87  N         -7.8390   18.3410   11.0580 N.am  247  ASN247     -0.1972
     88  CA        -8.4540   18.8960   12.2390 C.3   247  ASN247      0.1688
     89  C         -9.9460   18.9320   11.8430 C.2   247  ASN247      0.2292
     90  O        -10.2110   19.5820   10.8220 O.2   247  ASN247     -0.2864
     91  CB        -8.0060   20.3190   12.5710 C.3   247  ASN247      0.1181
     92  CG        -6.7320   20.4730   13.3690 C.2   247  ASN247      0.2629
     93  OD1       -6.1930   19.5130   13.9110 O.2   247  ASN247     -0.2716
     94  ND2       -6.1840   21.6990   13.4760 N.am  247  ASN247     -0.0877
     95  N         -2.7710    7.6930   14.2870 N.3   269  TYR269     -0.1241
     96  CA        -1.8720    8.8530   14.0890 C.3   269  TYR269      0.1605
     97  C         -1.0030    9.0040   15.3250 C.2   269  TYR269      0.2264
     98  O         -1.5400    8.9490   16.4520 O.2   269  TYR269     -0.2867
     99  CB        -2.8010   10.0600   13.9660 C.3   269  TYR269      0.0534
    100  CG        -2.2510   11.3180   13.3420 C.ar  269  TYR269     -0.0201
    101  CD1       -1.0740   11.3460   12.5910 C.ar  269  TYR269     -0.0009
    102  CD2       -2.9890   12.4890   13.5110 C.ar  269  TYR269     -0.0009
    103  CE1       -0.6680   12.5580   12.0280 C.ar  269  TYR269      0.0417
    104  CE2       -2.5680   13.6780   12.9470 C.ar  269  TYR269      0.0417
    105  CZ        -1.4070   13.6970   12.2050 C.ar  269  TYR269      0.1957
    106  OH        -1.0180   14.9160   11.6640 O.3   269  TYR269     -0.2866
    107  N         -4.0120   28.1990   19.3760 N.3   366  ASN366     -0.1240
    108  CA        -3.9730   28.8030   18.0310 C.3   366  ASN366      0.1653
    109  C         -5.3890   28.8680   17.4630 C.2   366  ASN366      0.2266
    110  O         -6.1780   27.9390   17.6080 O.2   366  ASN366     -0.2867
    111  CB        -3.0450   28.0280   17.1030 C.3   366  ASN366      0.1155
    112  CG        -3.3650   26.5480   17.0300 C.2   366  ASN366      0.2627
    113  OD1       -3.3380   25.8570   18.0600 O.2   366  ASN366     -0.2716
    114  ND2       -3.6460   26.0510   15.8320 N.am  366  ASN366     -0.0877
    115  N         -9.9320   23.9700   18.5830 N.3   371  HIS371     -0.1241
    116  CA        -9.1880   24.2630   19.8180 C.3   371  HIS371      0.1621
    117  C         -9.9800   25.1750   20.7510 C.2   371  HIS371      0.2264
    118  O         -9.8720   25.0530   21.9780 O.2   371  HIS371     -0.2867
    119  CB        -7.7880   24.8520   19.5620 C.3   371  HIS371      0.0745
    120  CG        -6.9790   23.9280   18.6980 C.ar  371  HIS371      0.0817
    121  ND1       -6.8820   22.5800   18.9380 N.ar  371  HIS371     -0.2268
    122  CD2       -6.2510   24.1850   17.5820 C.ar  371  HIS371      0.1154
    123  CE1       -6.1160   22.0330   18.0010 C.ar  371  HIS371      0.1986
    124  NE2       -5.7440   22.9880   17.1540 N.ar  371  HIS371     -0.2212
    125  N         -1.2730   30.8400   14.1620 N.3   397  TRP397     -0.1241
    126  CA        -0.2790   29.7700   14.2650 C.3   397  TRP397      0.1605
    127  C          1.1600   30.1930   14.4080 C.2   397  TRP397      0.2264
    128  O          1.8330   29.7910   15.3650 O.2   397  TRP397     -0.2867
    129  CB        -0.4250   28.8750   13.0370 C.3   397  TRP397      0.0550
    130  CG         0.4920   27.6930   12.9120 C.ar  397  TRP397      0.0003
    131  CD1        1.4320   27.5330   11.9300 C.ar  397  TRP397      0.0946
    132  CD2        0.5300   26.5130   13.7110 C.ar  397  TRP397      0.0152
    133  NE1        2.0720   26.3120   12.0820 N.ar  397  TRP397     -0.2442
    134  CE2        1.5260   25.6740   13.1760 C.ar  397  TRP397      0.0810
    135  CE3       -0.1680   26.0940   14.8540 C.ar  397  TRP397      0.0012
    136  CZ2        1.8330   24.4360   13.7320 C.ar  397  TRP397      0.0191
    137  CZ3        0.1500   24.8580   15.4250 C.ar  397  TRP397      0.0001
    138  CH2        1.1330   24.0320   14.8290 C.ar  397  TRP397      0.0015
    139  N          3.3460   29.6450   18.0480 N.3   401  LEU401     -0.1245
    140  CA         4.5740   28.8820   18.2230 C.3   401  LEU401      0.1561
    141  C          5.6980   29.7650   18.7700 C.2   401  LEU401      0.2260
    142  O          6.4680   29.3540   19.6380 O.2   401  LEU401     -0.2867
    143  CB         4.9990   28.2550   16.8890 C.3   401  LEU401      0.0270
    144  CG         3.9120   27.3610   16.2400 C.3   401  LEU401      0.0019
    145  CD1        4.5120   26.6710   15.0270 C.3   401  LEU401      0.0001
    146  CD2        3.4280   26.2590   17.2050 C.3   401  LEU401      0.0001
    147  N          5.2350   30.3300   22.5390 N.3   404  ARG404     -0.1231
    148  CA         5.6590   29.1600   23.3350 C.3   404  ARG404      0.1694
    149  C          7.1670   29.0840   23.4200 C.2   404  ARG404      0.2592
    150  O          7.6660   28.7970   24.5120 O.2   404  ARG404     -0.2718
    151  CB         5.0120   27.9010   22.7770 C.3   404  ARG404      0.0321
    152  CG         3.4960   27.9560   23.0310 C.3   404  ARG404      0.0489
    153  CD         2.7450   26.9270   22.2220 C.3   404  ARG404      0.2205
    154  NE         3.1970   25.5740   22.5780 N.pl3 404  ARG404     -0.0865
    155  CZ         2.9040   24.4760   21.9010 C.cat 404  ARG404      0.5346
    156  NH1        2.1630   24.5320   20.8000 N.pl3 404  ARG404      0.1354
    157  NH2        3.4070   23.3100   22.3320 N.pl3 404  ARG404      0.1354
    158  N          7.9080   29.3920   22.3440 N.am  405  HIS405     -0.1976
    159  CA         9.3620   29.4060   22.4650 C.3   405  HIS405      0.1656
    160  C          9.8330   30.5110   23.3970 C.2   405  HIS405      0.2291
    161  O         10.8090   30.2910   24.1380 O.2   405  HIS405     -0.2864
    162  CB        10.0700   29.5770   21.1220 C.3   405  HIS405      0.0771
    163  CG        10.2240   28.2970   20.3600 C.ar  405  HIS405      0.0820
    164  ND1       11.0740   27.2920   20.7800 N.ar  405  HIS405     -0.2267
    165  CD2        9.6560   27.8550   19.2210 C.ar  405  HIS405      0.1154
    166  CE1       10.9880   26.2740   19.9410 C.ar  405  HIS405      0.1986
    167  NE2       10.1570   26.6000   18.9630 N.ar  405  HIS405     -0.2212
    168  N         -2.4410   25.1700   24.6140 N.3   413  ARG413     -0.1245
    169  CA        -2.9210   23.9560   23.9300 C.3   413  ARG413      0.1563
    170  C         -1.7430   23.4200   23.1360 C.2   413  ARG413      0.2260
    171  O         -0.9130   24.2290   22.6850 O.2   413  ARG413     -0.2867
    172  CB        -4.0950   24.4470   23.0980 C.3   413  ARG413      0.0307
    173  CG        -4.7860   23.6020   22.0760 C.3   413  ARG413      0.0489
    174  CD        -4.1880   23.8600   20.6730 C.3   413  ARG413      0.2205
    175  NE        -3.7930   22.5350   20.2330 N.pl3 413  ARG413     -0.0865
    176  CZ        -2.8950   22.2720   19.2770 C.cat 413  ARG413      0.5346
    177  NH1       -2.2770   23.2000   18.5710 N.pl3 413  ARG413      0.1354
    178  NH2       -2.7070   20.9840   19.0940 N.pl3 413  ARG413      0.1354
    179  N          0.0960   19.9690   20.5800 N.3   415  GLY415     -0.1210
    180  CA        -0.0120   18.6620   19.9270 C.3   415  GLY415      0.1956
    181  C          1.3620   18.3660   19.3330 C.2   415  GLY415      0.2612
    182  O          1.9440   19.2230   18.6730 O.2   415  GLY415     -0.2717
    183  N          1.9370   17.2420   19.7530 N.am  416  TRP416     -0.1962
    184  CA         3.2360   16.8820   19.1430 C.3   416  TRP416      0.1771
    185  C          2.9780   15.6230   18.3160 C.2   416  TRP416      0.2620
    186  O          2.2960   14.7120   18.8220 O.2   416  TRP416     -0.2715
    187  CB         4.3180   16.5770   20.1830 C.3   416  TRP416      0.0590
    188  CG         5.6600   16.2360   19.5750 C.ar  416  TRP416      0.0006
    189  CD1        6.2210   14.9860   19.4660 C.ar  416  TRP416      0.0946
    190  CD2        6.6110   17.1580   19.0310 C.ar  416  TRP416      0.0152
    191  NE1        7.4780   15.0950   18.8800 N.ar  416  TRP416     -0.2442
    192  CE2        7.7300   16.4100   18.6090 C.ar  416  TRP416      0.0810
    193  CE3        6.6160   18.5460   18.9030 C.ar  416  TRP416      0.0012
    194  CZ2        8.8530   17.0000   18.0220 C.ar  416  TRP416      0.0191
    195  CZ3        7.7320   19.1560   18.3100 C.ar  416  TRP416      0.0001
    196  CH2        8.8250   18.3710   17.8930 C.ar  416  TRP416      0.0015
    197  N          3.4740   15.6000   17.0810 N.am  417  CYS417     -0.1954
    198  CA         3.3320   14.4490   16.2110 C.3   417  CYS417      0.1843
    199  C          4.7360   13.8870   15.9350 C.2   417  CYS417      0.2625
    200  O          5.6750   14.6770   15.7390 O.2   417  CYS417     -0.2714
    201  CB         2.7780   14.8590   14.8270 C.3   417  CYS417      0.0997
    202  SG         1.0240   15.3440   14.9660 S.3   417  CYS417     -0.0797
    203  N          4.8710   12.5770   15.9700 N.am  418  ALA418     -0.1963
    204  CA         6.1860   12.0000   15.7210 C.3   418  ALA418      0.1728
    205  C          6.8280   12.4850   14.4170 C.2   418  ALA418      0.2616
    206  O          6.1910   12.7200   13.3760 O.2   418  ALA418     -0.2715
    207  CB         6.0830   10.4730   15.6660 C.3   418  ALA418      0.0334
    208  N          8.1690   12.5370   14.4620 N.am  419  ASP419     -0.1971
    209  CA         8.9770   12.8370   13.2760 C.3   419  ASP419      0.1709
    210  C          9.5360   11.5280   12.6990 C.2   419  ASP419      0.2293
    211  O          9.8840   11.4050   11.5220 O.2   419  ASP419     -0.2864
    212  CB        10.1510   13.7560   13.6740 C.3   419  ASP419      0.1436
    213  CG         9.6280   15.1150   14.1370 C.2   419  ASP419      0.3671
    214  OD1        8.6300   15.5740   13.5550 O.co2 419  ASP419     -0.2456
    215  OD2       10.2200   15.7110   15.0560 O.co2 419  ASP419     -0.2456
    216  N         13.5030   21.8350   20.9600 N.3   436  ASN436     -0.1240
    217  CA        12.0600   21.6660   20.8760 C.3   436  ASN436      0.1653
    218  C         11.3550   21.7390   22.2340 C.2   436  ASN436      0.2266
    219  O         10.1270   21.5400   22.2610 O.2   436  ASN436     -0.2867
    220  CB        11.7020   20.3130   20.2430 C.3   436  ASN436      0.1155
    221  CG        12.2740   20.1370   18.8500 C.2   436  ASN436      0.2627
    222  OD1       13.1380   19.2860   18.5940 O.2   436  ASN436     -0.2716
    223  ND2       11.8140   20.9210   17.8760 N.am  436  ASN436     -0.0877
    224  N          9.4780   23.3870   24.5700 N.3   438  THR438     -0.1218
    225  CA         8.6870   24.5740   24.8700 C.3   438  THR438      0.1862
    226  C          7.9000   24.3670   26.1480 C.2   438  THR438      0.2287
    227  O          7.2880   25.3230   26.6330 O.2   438  THR438     -0.2866
    228  CB         7.8170   25.0020   23.6800 C.3   438  THR438      0.1770
    229  OG1        7.1560   23.8590   23.1340 O.3   438  THR438     -0.2211
    230  CG2        8.7040   25.6080   22.5880 C.3   438  THR438      0.0375
    231  N         -4.3670   11.5220   19.3590 N.3   485  TYR485     -0.1241
    232  CA        -5.1640   11.8230   18.1880 C.3   485  TYR485      0.1605
    233  C         -5.4690   10.6210   17.2960 C.2   485  TYR485      0.2264
    234  O         -4.6610    9.7080   17.1390 O.2   485  TYR485     -0.2867
    235  CB        -4.3870   12.6910   17.1890 C.3   485  TYR485      0.0534
    236  CG        -4.1430   14.1470   17.4200 C.ar  485  TYR485     -0.0201
    237  CD1       -3.3480   14.5770   18.4670 C.ar  485  TYR485     -0.0009
    238  CD2       -4.7040   15.1040   16.5790 C.ar  485  TYR485     -0.0009
    239  CE1       -3.0780   15.9260   18.6500 C.ar  485  TYR485      0.0417
    240  CE2       -4.4640   16.4570   16.7510 C.ar  485  TYR485      0.0417
    241  CZ        -3.6490   16.8470   17.7870 C.ar  485  TYR485      0.1957
    242  OH        -3.3620   18.1680   18.0230 O.3   485  TYR485     -0.2866
    243  N          2.4420    8.5010   10.5790 N.3   504  LEU504     -0.1245
    244  CA         3.0900    9.7920   10.6410 C.3   504  LEU504      0.1561
    245  C          2.4120   10.7660    9.6770 C.2   504  LEU504      0.2260
    246  O          2.7150   11.9560    9.7460 O.2   504  LEU504     -0.2867
    247  CB         4.5930    9.7680   10.3280 C.3   504  LEU504      0.0270
    248  CG         5.4840    8.8240   11.1390 C.3   504  LEU504      0.0019
    249  CD1        6.9460    9.2460   11.0670 C.3   504  LEU504      0.0001
    250  CD2        5.0280    8.7110   12.5780 C.3   504  LEU504      0.0001
    251  N          2.9640   11.2550    6.4910 N.3   506  ASN506     -0.1240
    252  CA         3.9480   11.9580    5.6370 C.3   506  ASN506      0.1653
    253  C          3.5350   11.8820    4.1670 C.2   506  ASN506      0.2266
    254  O          4.1130   11.1440    3.3820 O.2   506  ASN506     -0.2867
    255  CB         5.3260   11.3080    5.8050 C.3   506  ASN506      0.1155
    256  CG         6.0310   11.7300    7.0740 C.2   506  ASN506      0.2627
    257  OD1        5.9750   12.8860    7.4410 O.2   506  ASN506     -0.2716
    258  ND2        6.7060   10.8210    7.7560 N.am  506  ASN506     -0.0877
@<TRIPOS>BOND
     1    30    29    2
     2    29    28    1
     3    28    31    1
     4    28    27    1
     5    31    32    1
     6   254   253    2
     7    32    33    1
     8    33    34    1
     9    34    35    2
    10   253   252    1
    11    24    23    2
    12    37    35    1
    13    35    36    1
    14    23    22    1
    15   252   255    1
    16   252   251    1
    17   255   256    1
    18    67    68    1
    19    63    62    2
    20    61    64    1
    21    61    62    1
    22    61    60    1
    23    68    71    1
    24    68    69    1
    25    22    21    1
    26    22    25    1
    27    64    65    1
    28   256   257    2
    29   256   258   am
    30    53    52    2
    31    65    66    1
    32    71    72    1
    33    60    52   am
    34    60    66    1
    35    52    51    1
    36    70    69    2
    37    69    79   am
    38    50    51    1
    39    25    26    1
    40    73    72   ar
    41    73    75   ar
    42    17    16    2
    43    51    54    1
    44    72    74   ar
    45    79    80    1
    46    75    77   ar
    47    16    15    1
    48    83    80    1
    49    83    84    1
    50    80    81    1
    51    85    84    2
    52    84    86   am
    53   245   246    2
    54   245   244    1
    55    74    76   ar
    56    54    55    1
    57    19    18    1
    58    77    76   ar
    59    77    78    1
    60    13    12    2
    61   247   244    1
    62   247   248    1
    63    15    18    1
    64    15    14    1
    65   243   244    1
    66    55    56   ar
    67    55    57   ar
    68    90    89    2
    69    81    87   am
    70    81    82    2
    71    56    58   ar
    72    87    88    1
    73   249   248    1
    74    18    20    1
    75   248   250    1
    76    57    59   ar
    77    12    14   am
    78    12    11    1
    79   211   210    2
    80    58    59   ar
    81   106   105    1
    82    89    88    1
    83   131   133   ar
    84   131   130   ar
    85     1     2    1
    86   103   105   ar
    87   103   101   ar
    88   133   134   ar
    89    10    11    1
    90    10     3   am
    91   105   104   ar
    92    88    91    1
    93    91    92    1
    94   101   100   ar
    95   210   209    1
    96   130   129    1
    97   130   132   ar
    98   104   102   ar
    99   129   126    1
   100     2     3    1
   101     2     5    1
   102     3     4    2
   103   134   132   ar
   104   134   136   ar
   105   209   212    1
   106   209   208    1
   107   100   102   ar
   108   100    99    1
   109    92    94   am
   110    92    93    2
   111   206   205    2
   112   214   213   ar
   113   212   213    1
   114   132   135   ar
   115   136   138   ar
   116    45    47   ar
   117    45    43   ar
   118    42    43    1
   119    42    39    1
   120    99    96    1
   121    96    95    1
   122    96    97    1
   123    47    48   ar
   124    43    44   ar
   125   213   215   ar
   126   125   126    1
   127   126   127    1
   128     5     6    1
   129   127   128    2
   130   205   208   am
   131   205   204    1
   132    48    49    1
   133    48    46   ar
   134    44    46   ar
   135     6     7    1
   136    41    40    2
   137   201   202    1
   138   201   198    1
   139   138   137   ar
   140   135   137   ar
   141   145   144    1
   142    39    40    1
   143    39    38    1
   144    97    98    2
   145   207   204    1
   146     9     7   ar
   147   204   203    1
   148   200   199    2
   149   114   112   am
   150     7     8   ar
   151   199   203   am
   152   199   198    1
   153   198   197    1
   154   144   143    1
   155   144   146    1
   156   238   240   ar
   157   238   236   ar
   158   240   241   ar
   159   143   140    1
   160   112   111    1
   161   112   113    2
   162   197   185   am
   163   111   108    1
   164   234   233    2
   165   124   122   ar
   166   124   123   ar
   167   235   236    1
   168   235   232    1
   169   233   232    1
   170   236   237   ar
   171   109   110    2
   172   109   108    1
   173   122   120   ar
   174   241   242    1
   175   241   239   ar
   176   223   221   am
   177   196   194   ar
   178   196   195   ar
   179   123   121   ar
   180   194   192   ar
   181   108   107    1
   182   139   140    1
   183   232   231    1
   184   140   141    1
   185   195   193   ar
   186   185   186    2
   187   185   184    1
   188   237   239   ar
   189   177   176    1
   190   115   116    1
   191   222   221    2
   192   192   191   ar
   193   192   190   ar
   194   182   181    2
   195   120   121   ar
   196   120   119    1
   197   141   142    2
   198   221   220    1
   199   191   189   ar
   200   193   190   ar
   201   167   165   ar
   202   167   166   ar
   203   190   188   ar
   204   178   176    1
   205   184   183    1
   206   184   187    1
   207   165   163   ar
   208   176   175    2
   209   181   183   am
   210   181   180    1
   211   189   188   ar
   212   119   116    1
   213   188   187    1
   214   116   117    1
   215   180   179    1
   216   166   164   ar
   217   175   174    1
   218   220   217    1
   219   163   164   ar
   220   163   162    1
   221   174   173    1
   222   117   118    2
   223   156   155    1
   224   217   216    1
   225   217   218    1
   226   162   159    1
   227   155   157    1
   228   155   154    2
   229   173   172    1
   230   153   154    1
   231   153   152    1
   232   218   219    2
   233   158   159    1
   234   158   149   am
   235   159   160    1
   236   147   148    1
   237   230   228    1
   238   171   170    2
   239   151   152    1
   240   151   148    1
   241   172   169    1
   242   229   228    1
   243   170   169    1
   244   148   149    1
   245   160   161    2
   246   149   150    2
   247   228   225    1
   248   169   168    1
   249   224   225    1
   250   225   226    1
   251   226   227    2
