@<TRIPOS>MOLECULE
tmp/1b1yA00.pdb
 189 177 0 0 0
SMALL
GASTEIGER

@<TRIPOS>ATOM
      1  N         34.1030   42.3660   35.2440 N.3    11  MET11      -0.1230
      2  CA        34.0270   41.2550   34.3230 C.3    11  MET11       0.1702
      3  C         32.8490   41.5730   33.4200 C.2    11  MET11       0.2592
      4  O         31.7580   41.8850   33.8940 O.2    11  MET11      -0.2718
      5  CB        33.7170   39.9400   34.9700 C.3    11  MET11       0.0401
      6  CG        34.6940   39.3990   35.9540 C.3    11  MET11       0.0596
      7  SD        33.9810   37.8250   36.4740 S.3    11  MET11      -0.1393
      8  CE        35.3950   36.8060   36.2170 C.3    11  MET11       0.0692
      9  N         33.0710   41.4990   32.0990 N.am   12  LEU12      -0.1980
     10  CA        32.0440   41.7690   31.1050 C.3    12  LEU12       0.1596
     11  C         30.9270   40.7220   31.1420 C.2    12  LEU12       0.2287
     12  O         31.1190   39.6490   31.7440 O.2    12  LEU12      -0.2864
     13  CB        32.7250   41.8210   29.7380 C.3    12  LEU12       0.0297
     14  CG        33.6850   42.9800   29.5330 C.3    12  LEU12       0.0022
     15  CD1       34.2200   42.9680   28.1020 C.3    12  LEU12       0.0001
     16  CD2       32.9630   44.2730   29.7780 C.3    12  LEU12       0.0001
     17  N         28.5160   37.6100   30.4620 N.3    14  LEU14      -0.1245
     18  CA        29.0070   36.3070   30.0060 C.3    14  LEU14       0.1561
     19  C         29.0500   36.1670   28.4880 C.2    14  LEU14       0.2260
     20  O         29.8470   35.4360   27.8940 O.2    14  LEU14      -0.2867
     21  CB        28.1420   35.2020   30.6190 C.3    14  LEU14       0.0270
     22  CG        28.5290   34.6630   31.9850 C.3    14  LEU14       0.0019
     23  CD1       27.5160   33.6720   32.4650 C.3    14  LEU14       0.0001
     24  CD2       29.8690   33.9730   31.8900 C.3    14  LEU14       0.0001
     25  N         37.5270   42.1590   32.0090 N.3    45  MET45      -0.1245
     26  CA        37.8950   40.7690   31.7820 C.3    45  MET45       0.1570
     27  C         36.8520   39.9830   31.0160 C.2    45  MET45       0.2261
     28  O         35.7140   39.8630   31.4560 O.2    45  MET45      -0.2867
     29  CB        38.1280   40.1080   33.1220 C.3    45  MET45       0.0387
     30  CG        38.4100   38.6350   32.9870 C.3    45  MET45       0.0595
     31  SD        37.8610   37.7910   34.4730 S.3    45  MET45      -0.1393
     32  CE        39.4670   37.7190   35.1980 C.3    45  MET45       0.0692
     33  N         35.6970   36.3590   28.7490 N.3    47  ASP47      -0.1239
     34  CA        36.0020   34.9940   28.4030 C.3    47  ASP47       0.1674
     35  C         36.1950   34.9830   26.9100 C.2    47  ASP47       0.2266
     36  O         35.5420   35.7340   26.1840 O.2    47  ASP47      -0.2867
     37  CB        34.8620   34.0640   28.6600 C.3    47  ASP47       0.1410
     38  CG        34.5000   33.9000   30.1140 C.2    47  ASP47       0.3668
     39  OD1       35.0870   33.0180   30.7230 O.co2  47  ASP47      -0.2456
     40  OD2       33.6530   34.6380   30.6210 O.co2  47  ASP47      -0.2456
     41  N         35.6340   32.2750   24.7270 N.3    49  TRP49      -0.1241
     42  CA        35.0920   30.9290   24.6740 C.3    49  TRP49       0.1605
     43  C         35.5620   30.0410   23.5490 C.2    49  TRP49       0.2264
     44  O         35.4140   30.3030   22.3610 O.2    49  TRP49      -0.2867
     45  CB        33.5640   30.9490   24.6150 C.3    49  TRP49       0.0550
     46  CG        32.8320   31.7230   25.7120 C.ar   49  TRP49       0.0003
     47  CD1       32.3560   33.0040   25.5220 C.ar   49  TRP49       0.0946
     48  CD2       32.5720   31.2680   26.9720 C.ar   49  TRP49       0.0152
     49  NE1       31.8000   33.3690   26.6510 N.ar   49  TRP49      -0.2442
     50  CE2       31.9060   32.3690   27.5390 C.ar   49  TRP49       0.0810
     51  CE3       32.8010   30.1070   27.7150 C.ar   49  TRP49       0.0012
     52  CZ2       31.4720   32.3160   28.8560 C.ar   49  TRP49       0.0191
     53  CZ3       32.3620   30.0630   29.0390 C.ar   49  TRP49       0.0001
     54  CH2       31.7090   31.1610   29.5930 C.ar   49  TRP49       0.0015
     55  N         40.2500   35.4820   29.3820 N.3    83  ILE83      -0.1245
     56  CA        40.2430   34.1520   29.9660 C.3    83  ILE83       0.1561
     57  C         40.1860   33.1370   28.8460 C.2    83  ILE83       0.2260
     58  O         39.1990   33.1150   28.1170 O.2    83  ILE83      -0.2867
     59  CB        39.0010   33.9160   30.8820 C.3    83  ILE83       0.0252
     60  CG1       38.8740   35.0170   31.8910 C.3    83  ILE83       0.0019
     61  CG2       39.1400   32.5820   31.6250 C.3    83  ILE83       0.0019
     62  CD1       37.5730   34.8950   32.6850 C.3    83  ILE83       0.0001
     63  N         35.8910   25.8910   28.6050 N.3    87  HIS87      -0.1226
     64  CA        34.7670   25.2880   29.3470 C.3    87  HIS87       0.1752
     65  C         33.3650   25.8030   29.0400 C.2    87  HIS87       0.2596
     66  O         33.1690   26.9130   28.5550 O.2    87  HIS87      -0.2718
     67  CB        34.9720   25.4600   30.8360 C.3    87  HIS87       0.0759
     68  CG        35.0910   26.9200   31.2720 C.ar   87  HIS87       0.0818
     69  ND1       36.1350   27.7460   31.2030 N.ar   87  HIS87      -0.2268
     70  CD2       34.0660   27.6280   31.8580 C.ar   87  HIS87       0.1154
     71  CE1       35.7740   28.9030   31.7210 C.ar   87  HIS87       0.1986
     72  NE2       34.5270   28.8180   32.1170 N.ar   87  HIS87      -0.2212
     73  N         32.3490   25.0130   29.3580 N.am   88  GLN88      -0.1965
     74  CA        30.9860   25.3810   29.1030 C.3    88  GLN88       0.1733
     75  C         30.4370   26.3920   30.0550 C.2    88  GLN88       0.2616
     76  O         30.5990   26.2740   31.2600 O.2    88  GLN88      -0.2715
     77  CB        30.1420   24.1640   29.1810 C.3    88  GLN88       0.0408
     78  CG        28.6370   24.3410   29.1640 C.3    88  GLN88       0.0908
     79  CD        28.0140   22.9810   29.0080 C.2    88  GLN88       0.2608
     80  OE1       27.8770   22.4570   27.9100 O.2    88  GLN88      -0.2717
     81  NE2       27.6410   22.3500   30.1040 N.am   88  GLN88      -0.0878
     82  N         29.7460   27.3450   29.4360 N.am   89  CYS89      -0.1968
     83  CA        29.0470   28.4280   30.1010 C.3    89  CYS89       0.1712
     84  C         27.6730   27.8280   30.2120 C.2    89  CYS89       0.2296
     85  O         27.0840   27.4540   29.2130 O.2    89  CYS89      -0.2864
     86  CB        28.9190   29.6250   29.2480 C.3    89  CYS89       0.0983
     87  SG        28.2200   30.9670   30.2030 S.3    89  CYS89      -0.0798
     88  N         26.6440   26.3630   36.0940 N.3    92  ASN92      -0.1225
     89  CA        27.0470   26.9560   37.3480 C.3    92  ASN92       0.1785
     90  C         26.1520   28.1220   37.7640 C.2    92  ASN92       0.2597
     91  O         25.1140   28.4010   37.1390 O.2    92  ASN92      -0.2718
     92  CB        28.5200   27.3720   37.1720 C.3    92  ASN92       0.1169
     93  CG        29.4250   26.2650   36.6150 C.2    92  ASN92       0.2627
     94  OD1       29.1070   25.0690   36.5790 O.2    92  ASN92      -0.2716
     95  ND2       30.5980   26.6760   36.1470 N.am   92  ASN92      -0.0877
     96  N         26.5020   28.7570   38.8960 N.am   93  VAL93      -0.1980
     97  CA        25.7170   29.8850   39.3460 C.3    93  VAL93       0.1595
     98  C         26.2090   31.1030   38.6000 C.2    93  VAL93       0.2287
     99  O         27.3950   31.3660   38.3650 O.2    93  VAL93      -0.2864
    100  CB        25.8320   30.0710   40.9010 C.3    93  VAL93       0.0276
    101  CG1       25.9130   31.5070   41.4140 C.3    93  VAL93       0.0022
    102  CG2       24.4910   29.6160   41.4490 C.3    93  VAL93       0.0022
    103  N         25.2470   31.5300   35.4640 N.3    95  ASP95      -0.1239
    104  CA        25.3200   31.2570   34.0270 C.3    95  ASP95       0.1674
    105  C         23.9990   31.3240   33.2770 C.2    95  ASP95       0.2266
    106  O         23.2290   30.3570   33.2300 O.2    95  ASP95      -0.2867
    107  CB        25.9880   29.8700   33.8060 C.3    95  ASP95       0.1410
    108  CG        27.4990   29.7910   34.0920 C.2    95  ASP95       0.3668
    109  OD1       28.1090   30.8310   34.3410 O.co2  95  ASP95      -0.2456
    110  OD2       28.0720   28.6960   34.0740 O.co2  95  ASP95      -0.2456
    111  N         34.1390   26.4260   35.0490 N.3   178  ALA178     -0.1245
    112  CA        34.1870   27.8670   35.2680 C.3   178  ALA178      0.1562
    113  C         35.5750   28.4540   35.0160 C.2   178  ALA178      0.2260
    114  O         35.7890   29.6650   35.0710 O.2   178  ALA178     -0.2867
    115  CB        33.7540   28.2350   36.6900 C.3   178  ALA178      0.0290
    116  N         38.3420   27.0070   36.2960 N.3   180  GLU180     -0.1245
    117  CA        39.0600   26.9200   37.5340 C.3   180  GLU180      0.1567
    118  C         39.7640   25.6230   37.6700 C.2   180  GLU180      0.2260
    119  O         39.2100   24.6060   37.2750 O.2   180  GLU180     -0.2867
    120  CB        38.0740   27.0940   38.6850 C.3   180  GLU180      0.0388
    121  CG        37.1500   28.3080   38.6130 C.3   180  GLU180      0.1160
    122  CD        36.1030   28.3550   39.7060 C.2   180  GLU180      0.3649
    123  OE1       35.3950   27.3600   39.9270 O.co2 180  GLU180     -0.2457
    124  OE2       35.9920   29.4110   40.3250 O.co2 180  GLU180     -0.2457
    125  N         42.6110   30.2770   37.9990 N.3   289  LYS289     -0.1245
    126  CA        41.5920   30.5930   38.9770 C.3   289  LYS289      0.1561
    127  C         41.4670   29.3390   39.8350 C.2   289  LYS289      0.2260
    128  O         41.4740   28.2010   39.3640 O.2   289  LYS289     -0.2867
    129  CB        40.2740   30.9060   38.2850 C.3   289  LYS289      0.0271
    130  CG        40.3470   32.1180   37.3900 C.3   289  LYS289      0.0035
    131  CD        38.9860   32.1770   36.7430 C.3   289  LYS289      0.0206
    132  CE        38.9200   33.2300   35.6560 C.3   289  LYS289      0.1093
    133  NZ        38.5450   34.5350   36.1660 N.3   289  LYS289     -0.1314
    134  N         38.8480   33.4250   44.1620 N.3   336  THR336     -0.1218
    135  CA        37.4680   33.9270   44.0670 C.3   336  THR336      0.1862
    136  C         36.5270   34.1710   45.2770 C.2   336  THR336      0.2287
    137  O         35.3280   34.3140   45.0170 O.2   336  THR336     -0.2866
    138  CB        36.6830   32.9930   43.0620 C.3   336  THR336      0.1770
    139  OG1       36.1160   32.0060   43.9290 O.3   336  THR336     -0.2211
    140  CG2       37.5110   32.3260   41.8850 C.3   336  THR336      0.0375
    141  N         38.6010   37.9720   43.1590 N.3   374  GLU374     -0.1231
    142  CA        37.3720   38.1830   42.4310 C.3   374  GLU374      0.1699
    143  C         36.2320   37.7960   43.3420 C.2   374  GLU374      0.2592
    144  O         36.3310   36.7450   43.9590 O.2   374  GLU374     -0.2718
    145  CB        37.4790   37.3020   41.2440 C.3   374  GLU374      0.0402
    146  CG        36.3470   37.0300   40.2980 C.3   374  GLU374      0.1161
    147  CD        36.8330   35.9260   39.3850 C.2   374  GLU374      0.3649
    148  OE1       37.8870   36.0790   38.7740 O.co2 374  GLU374     -0.2457
    149  OE2       36.1690   34.8950   39.3060 O.co2 374  GLU374     -0.2457
    150  N         35.1640   38.5590   43.5340 N.am  375  ASN375     -0.1960
    151  CA        34.1060   38.0670   44.4040 C.3   375  ASN375      0.1819
    152  C         33.4220   36.8790   43.7350 C.2   375  ASN375      0.2621
    153  O         33.4180   36.7320   42.5170 O.2   375  ASN375     -0.2715
    154  CB        33.1090   39.1490   44.6640 C.3   375  ASN375      0.1195
    155  CG        32.6820   39.8470   43.4030 C.2   375  ASN375      0.2630
    156  OD1       33.3860   40.7150   42.9100 O.2   375  ASN375     -0.2716
    157  ND2       31.5510   39.4700   42.8300 N.am  375  ASN375     -0.0877
    158  N         32.8890   35.9800   44.5470 N.am  376  ALA376     -0.1963
    159  CA        32.2390   34.7990   44.0310 C.3   376  ALA376      0.1728
    160  C         30.7820   34.9890   43.6870 C.2   376  ALA376      0.2616
    161  O         30.2340   34.2900   42.8390 O.2   376  ALA376     -0.2715
    162  CB        32.3450   33.6610   45.0610 C.3   376  ALA376      0.0334
    163  N         30.1300   35.9220   44.3750 N.am  377  LEU377     -0.1977
    164  CA        28.7180   36.1620   44.1430 C.3   377  LEU377      0.1596
    165  C         28.3350   37.6300   43.8380 C.2   377  LEU377      0.2287
    166  O         29.0870   38.5490   44.2030 O.2   377  LEU377     -0.2864
    167  CB        27.9550   35.6090   45.3930 C.3   377  LEU377      0.0297
    168  CG        27.9250   34.0990   45.6980 C.3   377  LEU377      0.0022
    169  CD1       26.9660   33.8160   46.8500 C.3   377  LEU377      0.0001
    170  CD2       27.4650   33.3300   44.4720 C.3   377  LEU377      0.0001
    171  N         32.6260   40.8690   39.6900 N.3   413  LEU413     -0.1231
    172  CA        31.6360   40.0710   38.9420 C.3   413  LEU413      0.1693
    173  C         30.3050   40.7680   39.2160 C.2   413  LEU413      0.2591
    174  O         29.9230   40.8960   40.3830 O.2   413  LEU413     -0.2718
    175  CB        31.5860   38.6580   39.4950 C.3   413  LEU413      0.0284
    176  CG        30.9220   37.4420   38.8750 C.3   413  LEU413      0.0019
    177  CD1       31.7440   36.2700   39.3630 C.3   413  LEU413      0.0001
    178  CD2       29.4610   37.2510   39.2560 C.3   413  LEU413      0.0001
    179  N         29.5040   41.3060   38.2960 N.am  414  ARG414     -0.1980
    180  CA        29.7530   41.3230   36.8610 C.3   414  ARG414      0.1597
    181  C         29.1850   42.6250   36.2810 C.2   414  ARG414      0.2287
    182  O         28.5890   43.4010   37.0280 O.2   414  ARG414     -0.2864
    183  CB        29.0830   40.0510   36.2950 C.3   414  ARG414      0.0334
    184  CG        29.1030   39.7660   34.8010 C.3   414  ARG414      0.0492
    185  CD        28.6630   38.3300   34.5120 C.3   414  ARG414      0.2205
    186  NE        29.8390   37.4950   34.4700 N.pl3 414  ARG414     -0.0865
    187  CZ        29.9430   36.3520   35.1330 C.cat 414  ARG414      0.5346
    188  NH1       28.9790   35.8210   35.9100 N.pl3 414  ARG414      0.1354
    189  NH2       31.1190   35.7710   35.0460 N.pl3 414  ARG414      0.1354
@<TRIPOS>BOND
     1    44    43    2
     2    43    42    1
     3    45    42    1
     4    45    46    1
     5    42    41    1
     6    47    46   ar
     7    47    49   ar
     8    46    48   ar
     9    36    35    2
    10    49    50   ar
    11    35    34    1
    12    48    50   ar
    13    48    51   ar
    14    50    52   ar
    15    51    53   ar
    16    20    19    2
    17    80    79    2
    18    15    14    1
    19    58    57    2
    20    34    37    1
    21    34    33    1
    22    19    18    1
    23    66    65    2
    24    63    64    1
    25    37    38    1
    26    57    56    1
    27    52    54   ar
    28    79    78    1
    29    79    81   am
    30    53    54   ar
    31    65    64    1
    32    65    73   am
    33    74    77    1
    34    74    73    1
    35    74    75    1
    36    78    77    1
    37    85    84    2
    38    86    83    1
    39    86    87    1
    40    64    67    1
    41    55    56    1
    42    82    75   am
    43    82    83    1
    44    14    13    1
    45    14    16    1
    46    13    10    1
    47    56    59    1
    48    18    17    1
    49    18    21    1
    50    75    76    2
    51    83    84    1
    52    38    40   ar
    53    38    39   ar
    54    21    22    1
    55    67    68    1
    56    59    61    1
    57    59    60    1
    58    27    28    2
    59    27    26    1
    60    10    11    1
    61    10     9    1
    62    11    12    2
    63    69    68   ar
    64    69    71   ar
    65    68    70   ar
    66    71    72   ar
    67    26    25    1
    68    26    29    1
    69    70    72   ar
    70    24    22    1
    71    60    62    1
    72    22    23    1
    73     9     3   am
    74    30    29    1
    75    30    31    1
    76   106   105    2
    77   105   104    1
    78     3     4    2
    79     3     2    1
    80   107   104    1
    81   107   108    1
    82   104   103    1
    83   110   108   ar
    84   108   109   ar
    85     2     5    1
    86     2     1    1
    87   186   185    1
    88   186   187    2
    89    31    32    1
    90   185   184    1
    91   184   183    1
    92     5     6    1
    93   113   114    2
    94   113   112    1
    95   189   187    1
    96   111   112    1
    97   187   188    1
    98   112   115    1
    99   132   133    1
   100   132   131    1
   101     6     7    1
   102    88    89    1
   103    95    93   am
   104     8     7    1
   105   181   180    1
   106   181   182    2
   107   183   180    1
   108   116   117    1
   109    94    93    2
   110    93    92    1
   111   131   130    1
   112   180   179    1
   113    91    90    2
   114    92    89    1
   115   119   118    2
   116    89    90    1
   117   130   129    1
   118   117   118    1
   119   117   120    1
   120    90    96   am
   121   125   126    1
   122   129   126    1
   123   179   173   am
   124    99    98    2
   125    98    97    1
   126   121   120    1
   127   121   122    1
   128   148   147   ar
   129   176   178    1
   130   176   177    1
   131   176   175    1
   132    96    97    1
   133   172   173    1
   134   172   175    1
   135   172   171    1
   136   126   127    1
   137   173   174    2
   138   149   147   ar
   139    97   100    1
   140   128   127    2
   141   147   146    1
   142   122   123   ar
   143   122   124   ar
   144   146   145    1
   145   100   101    1
   146   100   102    1
   147   145   142    1
   148   140   138    1
   149   142   141    1
   150   142   143    1
   151   153   152    2
   152   157   155   am
   153   161   160    2
   154   156   155    2
   155   138   139    1
   156   138   135    1
   157   143   150   am
   158   143   144    2
   159   155   154    1
   160   150   151    1
   161   160   159    1
   162   160   163   am
   163   152   151    1
   164   152   158   am
   165   165   164    1
   166   165   166    2
   167   159   158    1
   168   159   162    1
   169   135   134    1
   170   135   136    1
   171   164   163    1
   172   164   167    1
   173   151   154    1
   174   170   168    1
   175   137   136    2
   176   167   168    1
   177   168   169    1
