@<TRIPOS>MOLECULE
tmp/1b1yA01.pdb
 125 121 0 0 0
SMALL
GASTEIGER

@<TRIPOS>ATOM
      1  N         26.6440   26.3630   36.0940 N.3    92  ASN92      -0.1225
      2  CA        27.0470   26.9560   37.3480 C.3    92  ASN92       0.1785
      3  C         26.1520   28.1220   37.7640 C.2    92  ASN92       0.2597
      4  O         25.1140   28.4010   37.1390 O.2    92  ASN92      -0.2718
      5  CB        28.5200   27.3720   37.1720 C.3    92  ASN92       0.1169
      6  CG        29.4250   26.2650   36.6150 C.2    92  ASN92       0.2627
      7  OD1       29.1070   25.0690   36.5790 O.2    92  ASN92      -0.2716
      8  ND2       30.5980   26.6760   36.1470 N.am   92  ASN92      -0.0877
      9  N         26.5020   28.7570   38.8960 N.am   93  VAL93      -0.1980
     10  CA        25.7170   29.8850   39.3460 C.3    93  VAL93       0.1595
     11  C         26.2090   31.1030   38.6000 C.2    93  VAL93       0.2287
     12  O         27.3950   31.3660   38.3650 O.2    93  VAL93      -0.2864
     13  CB        25.8320   30.0710   40.9010 C.3    93  VAL93       0.0276
     14  CG1       25.9130   31.5070   41.4140 C.3    93  VAL93       0.0022
     15  CG2       24.4910   29.6160   41.4490 C.3    93  VAL93       0.0022
     16  N         30.7830   19.8120   42.5130 N.3   186  TYR186     -0.1241
     17  CA        29.5490   20.3960   42.9570 C.3   186  TYR186      0.1605
     18  C         28.8120   20.9020   41.7410 C.2   186  TYR186      0.2264
     19  O         28.8000   22.0950   41.4240 O.2   186  TYR186     -0.2867
     20  CB        29.8550   21.5080   43.9470 C.3   186  TYR186      0.0534
     21  CG        30.8970   22.5640   43.6320 C.ar  186  TYR186     -0.0201
     22  CD1       32.2470   22.3030   43.8700 C.ar  186  TYR186     -0.0009
     23  CD2       30.4830   23.8100   43.1930 C.ar  186  TYR186     -0.0009
     24  CE1       33.1930   23.3070   43.6860 C.ar  186  TYR186      0.0417
     25  CE2       31.4290   24.8130   42.9970 C.ar  186  TYR186      0.0417
     26  CZ        32.7800   24.5640   43.2530 C.ar  186  TYR186      0.1957
     27  OH        33.6980   25.6060   43.1340 O.3   186  TYR186     -0.2866
     28  N         25.6720   21.7620   39.9230 N.3   188  GLN188     -0.1245
     29  CA        24.2580   22.0770   40.1360 C.3   188  GLN188      0.1566
     30  C         23.3610   21.3350   39.1630 C.2   188  GLN188      0.2260
     31  O         22.1890   21.0700   39.4260 O.2   188  GLN188     -0.2867
     32  CB        23.9720   23.5510   39.9530 C.3   188  GLN188      0.0367
     33  CG        24.6620   24.4270   40.9730 C.3   188  GLN188      0.0905
     34  CD        24.3250   25.8930   40.7870 C.2   188  GLN188      0.2608
     35  OE1       24.8770   26.5430   39.9120 O.2   188  GLN188     -0.2717
     36  NE2       23.4240   26.4600   41.5860 N.am  188  GLN188     -0.0878
     37  N         23.2240   18.5700   42.9310 N.3   192  TRP192     -0.1241
     38  CA        24.0480   18.7970   44.0880 C.3   192  TRP192      0.1605
     39  C         23.4590   20.1320   44.4860 C.2   192  TRP192      0.2264
     40  O         23.0910   20.9520   43.6480 O.2   192  TRP192     -0.2867
     41  CB        25.5190   19.0250   43.7650 C.3   192  TRP192      0.0550
     42  CG        26.2540   19.8730   44.8050 C.ar  192  TRP192      0.0003
     43  CD1       26.7930   19.3140   45.9250 C.ar  192  TRP192      0.0946
     44  CD2       26.4000   21.2450   44.7630 C.ar  192  TRP192      0.0152
     45  NE1       27.2760   20.3250   46.5950 N.ar  192  TRP192     -0.2442
     46  CE2       27.0710   21.4880   45.9580 C.ar  192  TRP192      0.0810
     47  CE3       26.0560   22.3020   43.9090 C.ar  192  TRP192      0.0012
     48  CZ2       27.4120   22.7980   46.3120 C.ar  192  TRP192      0.0191
     49  CZ3       26.3930   23.6050   44.2640 C.ar  192  TRP192      0.0001
     50  CH2       27.0680   23.8470   45.4590 C.ar  192  TRP192      0.0015
     51  N         24.1640   23.3210   47.6060 N.3   194  PHE194     -0.1241
     52  CA        24.9890   23.7810   48.7040 C.3   194  PHE194      0.1605
     53  C         24.2340   23.5190   50.0110 C.2   194  PHE194      0.2264
     54  O         23.0180   23.7420   50.0620 O.2   194  PHE194     -0.2867
     55  CB        25.2580   25.2560   48.4330 C.3   194  PHE194      0.0534
     56  CG        25.9660   26.0490   49.5270 C.ar  194  PHE194     -0.0203
     57  CD1       25.2210   26.7290   50.5020 C.ar  194  PHE194     -0.0042
     58  CD2       27.3530   26.1630   49.5230 C.ar  194  PHE194     -0.0042
     59  CE1       25.8580   27.5180   51.4530 C.ar  194  PHE194     -0.0003
     60  CE2       27.9780   26.9600   50.4850 C.ar  194  PHE194     -0.0003
     61  CZ        27.2360   27.6380   51.4460 C.ar  194  PHE194     -0.0000
     62  N         36.8970   28.6490   45.5330 N.3   292  GLY292     -0.1225
     63  CA        36.7630   29.0240   46.9270 C.3   292  GLY292      0.1811
     64  C         35.6600   28.1450   47.4660 C.2   292  GLY292      0.2280
     65  O         34.4730   28.4810   47.4660 O.2   292  GLY292     -0.2866
     66  N         34.5440   27.1570   50.4440 N.3   294  HIS294     -0.1226
     67  CA        34.4210   27.4270   51.8670 C.3   294  HIS294      0.1752
     68  C         33.5070   26.5380   52.7370 C.2   294  HIS294      0.2596
     69  O         33.7200   26.4490   53.9480 O.2   294  HIS294     -0.2718
     70  CB        34.0120   28.8840   51.9930 C.3   294  HIS294      0.0759
     71  CG        32.6150   29.2060   51.4820 C.ar  294  HIS294      0.0818
     72  ND1       31.4520   28.7100   51.8740 N.ar  294  HIS294     -0.2268
     73  CD2       32.3320   30.0900   50.4770 C.ar  294  HIS294      0.1154
     74  CE1       30.4900   29.2490   51.1550 C.ar  294  HIS294      0.1986
     75  NE2       31.0340   30.0780   50.3150 N.ar  294  HIS294     -0.2212
     76  N         32.4760   25.8440   52.2240 N.am  295  TRP295     -0.1976
     77  CA        31.6230   25.0040   53.0560 C.3   295  TRP295      0.1640
     78  C         32.4560   23.8450   53.5380 C.2   295  TRP295      0.2290
     79  O         33.3830   23.4130   52.8820 O.2   295  TRP295     -0.2864
     80  CB        30.3500   24.4820   52.3060 C.3   295  TRP295      0.0576
     81  CG        30.4090   23.9830   50.8560 C.ar  295  TRP295      0.0006
     82  CD1       30.1150   22.6830   50.5710 C.ar  295  TRP295      0.0946
     83  CD2       30.7480   24.6950   49.7300 C.ar  295  TRP295      0.0152
     84  NE1       30.2660   22.5460   49.2840 N.ar  295  TRP295     -0.2442
     85  CE2       30.6460   23.7140   48.7470 C.ar  295  TRP295      0.0810
     86  CE3       31.1290   25.9870   49.3840 C.ar  295  TRP295      0.0012
     87  CZ2       30.9230   24.0170   47.4230 C.ar  295  TRP295      0.0191
     88  CZ3       31.4070   26.2910   48.0600 C.ar  295  TRP295      0.0001
     89  CH2       31.3060   25.3130   47.0950 C.ar  295  TRP295      0.0015
     90  N         36.9060   34.2380   46.5610 N.3   337  CYS337     -0.1235
     91  CA        35.9370   34.4400   47.6140 C.3   337  CYS337      0.1677
     92  C         36.0040   35.7150   48.4140 C.2   337  CYS337      0.2270
     93  O         35.2650   35.8940   49.3840 O.2   337  CYS337     -0.2867
     94  CB        36.0350   33.3030   48.5600 C.3   337  CYS337      0.0956
     95  SG        34.5910   32.2960   48.2410 S.3   337  CYS337     -0.0801
     96  N         33.0400   37.5900   50.7660 N.3   340  MET340     -0.1245
     97  CA        32.3660   36.9700   51.8890 C.3   340  MET340      0.1570
     98  C         32.9880   37.2000   53.2500 C.2   340  MET340      0.2261
     99  O         34.1500   37.5690   53.4520 O.2   340  MET340     -0.2867
    100  CB        32.2710   35.4860   51.6310 C.3   340  MET340      0.0387
    101  CG        31.4960   35.2510   50.3570 C.3   340  MET340      0.0595
    102  SD        31.3570   33.5090   49.9210 S.3   340  MET340     -0.1393
    103  CE        29.8760   33.5110   48.9500 C.3   340  MET340      0.0692
    104  N         27.3310   33.2590   55.9640 N.3   345  GLN345     -0.1245
    105  CA        27.0960   31.9230   55.4600 C.3   345  GLN345      0.1566
    106  C         26.2340   31.1460   56.4180 C.2   345  GLN345      0.2260
    107  O         26.5370   31.1690   57.6090 O.2   345  GLN345     -0.2867
    108  CB        28.4070   31.1960   55.2810 C.3   345  GLN345      0.0367
    109  CG        29.3820   31.9590   54.4190 C.3   345  GLN345      0.0905
    110  CD        28.8780   32.2680   53.0300 C.2   345  GLN345      0.2608
    111  OE1       28.1700   31.5000   52.3550 O.2   345  GLN345     -0.2717
    112  NE2       29.3070   33.4640   52.6300 N.am  345  GLN345     -0.0878
    113  N         32.8890   35.9800   44.5470 N.3   376  ALA376     -0.1231
    114  CA        32.2390   34.7990   44.0310 C.3   376  ALA376      0.1694
    115  C         30.7820   34.9890   43.6870 C.2   376  ALA376      0.2591
    116  O         30.2340   34.2900   42.8390 O.2   376  ALA376     -0.2718
    117  CB        32.3450   33.6610   45.0610 C.3   376  ALA376      0.0304
    118  N         30.1300   35.9220   44.3750 N.am  377  LEU377     -0.1980
    119  CA        28.7180   36.1620   44.1430 C.3   377  LEU377      0.1596
    120  C         28.3350   37.6300   43.8380 C.2   377  LEU377      0.2287
    121  O         29.0870   38.5490   44.2030 O.2   377  LEU377     -0.2864
    122  CB        27.9550   35.6090   45.3930 C.3   377  LEU377      0.0297
    123  CG        27.9250   34.0990   45.6980 C.3   377  LEU377      0.0022
    124  CD1       26.9660   33.8160   46.8500 C.3   377  LEU377      0.0001
    125  CD2       27.4650   33.3300   44.4720 C.3   377  LEU377      0.0001
@<TRIPOS>BOND
     1     1     2    1
     2     8     6   am
     3     7     6    2
     4     6     5    1
     5     4     3    2
     6     5     2    1
     7     2     3    1
     8     3     9   am
     9    12    11    2
    10    11    10    1
    11     9    10    1
    12    30    31    2
    13    30    29    1
    14    10    13    1
    15    35    34    2
    16    28    29    1
    17    32    29    1
    18    32    33    1
    19    34    33    1
    20    34    36   am
    21    13    14    1
    22    13    15    1
    23    19    18    2
    24    18    17    1
    25    16    17    1
    26   116   115    2
    27    37    38    1
    28    17    20    1
    29    25    23   ar
    30    25    26   ar
    31    27    26    1
    32    23    21   ar
    33    26    24   ar
    34    21    22   ar
    35    21    20    1
    36    40    39    2
    37    24    22   ar
    38   115   114    1
    39   115   118   am
    40    41    38    1
    41    41    42    1
    42   120   119    1
    43   120   121    2
    44    47    49   ar
    45    47    44   ar
    46   114   113    1
    47   114   117    1
    48    38    39    1
    49   119   118    1
    50   119   122    1
    51    49    50   ar
    52   125   123    1
    53    44    42   ar
    54    44    46   ar
    55    42    43   ar
    56   122   123    1
    57    50    48   ar
    58    62    63    1
    59   123   124    1
    60    43    45   ar
    61    46    48   ar
    62    46    45   ar
    63    90    91    1
    64    63    64    1
    65    89    87   ar
    66    89    88   ar
    67    87    85   ar
    68    64    65    2
    69    51    52    1
    70    91    92    1
    71    91    94    1
    72    88    86   ar
    73    95    94    1
    74    92    93    2
    75    55    52    1
    76    55    56    1
    77    52    53    1
    78    85    84   ar
    79    85    83   ar
    80   103   102    1
    81    84    82   ar
    82    86    83   ar
    83    58    56   ar
    84    58    60   ar
    85    56    57   ar
    86    83    81   ar
    87   102   101    1
    88    53    54    2
    89    75    73   ar
    90    75    74   ar
    91   101   100    1
    92    66    67    1
    93    73    71   ar
    94    60    61   ar
    95    57    59   ar
    96    82    81   ar
    97    96    97    1
    98    81    80    1
    99    74    72   ar
   100    61    59   ar
   101    71    72   ar
   102    71    70    1
   103   100    97    1
   104    67    70    1
   105    67    68    1
   106    97    98    1
   107    76    68   am
   108    76    77    1
   109    80    77    1
   110   111   110    2
   111   112   110   am
   112    68    69    2
   113    79    78    2
   114   110   109    1
   115    77    78    1
   116    98    99    2
   117   109   108    1
   118   108   105    1
   119   105   104    1
   120   105   106    1
   121   106   107    2
