@<TRIPOS>MOLECULE
tmp/1b2lA02.pdb
 98 94 0 0 0
SMALL
GASTEIGER

@<TRIPOS>ATOM
      1  N         -1.8910   52.9750   40.5180 N.3    95  LEU95      -0.1245
      2  CA        -2.5840   54.0600   39.8460 C.3    95  LEU95       0.1561
      3  C         -1.6860   55.2890   39.8250 C.2    95  LEU95       0.2260
      4  O         -1.3080   55.8480   40.8640 O.2    95  LEU95      -0.2867
      5  CB        -3.9190   54.3780   40.5090 C.3    95  LEU95       0.0270
      6  CG        -4.8000   55.3850   39.7460 C.3    95  LEU95       0.0019
      7  CD1       -6.2160   55.3710   40.2990 C.3    95  LEU95       0.0001
      8  CD2       -4.2120   56.7870   39.8060 C.3    95  LEU95       0.0001
      9  N        -15.0350   52.3460   44.6940 N.3   183  ILE183     -0.1231
     10  CA       -14.1020   53.1600   45.4790 C.3   183  ILE183      0.1692
     11  C        -14.0880   52.7010   46.9470 C.2   183  ILE183      0.2593
     12  O        -15.1460   52.6170   47.5710 O.2   183  ILE183     -0.2718
     13  CB       -14.4820   54.6440   45.3540 C.3   183  ILE183      0.0266
     14  CG1      -14.5260   55.0640   43.8720 C.3   183  ILE183      0.0019
     15  CG2      -13.5250   55.4920   46.1580 C.3   183  ILE183      0.0020
     16  CD1      -13.2730   54.7560   43.0730 C.3   183  ILE183      0.0001
     17  N        -12.8930   52.3430   47.3990 N.am  184  THR184     -0.1939
     18  CA       -12.7590   51.5750   48.6470 C.3   184  THR184      0.2028
     19  C        -11.7290   52.2870   49.5080 C.2   184  THR184      0.2642
     20  O        -10.5810   52.4770   49.1150 O.2   184  THR184     -0.2714
     21  CB       -12.2970   50.1450   48.3440 C.3   184  THR184      0.1808
     22  OG1      -13.2720   49.5330   47.4990 O.3   184  THR184     -0.2208
     23  CG2      -12.2020   49.3140   49.6280 C.3   184  THR184      0.0379
     24  N        -12.1520   52.7040   50.7070 N.am  185  ARG185     -0.1963
     25  CA       -11.2430   53.4250   51.5950 C.3   185  ARG185      0.1729
     26  C        -10.4050   52.4210   52.3790 C.2   185  ARG185      0.2616
     27  O        -10.9680   51.4430   52.8790 O.2   185  ARG185     -0.2715
     28  CB       -12.0520   54.3360   52.5240 C.3   185  ARG185      0.0348
     29  CG       -12.8580   55.3800   51.7680 C.3   185  ARG185      0.0492
     30  CD       -13.6020   56.3700   52.6290 C.3   185  ARG185      0.2205
     31  NE       -14.1540   55.8600   53.8550 N.pl3 185  ARG185     -0.0865
     32  CZ       -15.2810   55.2680   54.1640 C.cat 185  ARG185      0.5346
     33  NH1      -16.1980   54.9580   53.2460 N.pl3 185  ARG185      0.1354
     34  NH2      -15.5320   54.9440   55.4340 N.pl3 185  ARG185      0.1354
     35  N         -9.1180   52.6580   52.4830 N.am  186  THR186     -0.1951
     36  CA        -8.1800   51.7880   53.1920 C.3   186  THR186      0.1897
     37  C         -7.4980   52.6310   54.2690 C.2   186  THR186      0.2313
     38  O         -7.8200   53.8250   54.4030 O.2   186  THR186     -0.2863
     39  CB        -7.1480   51.2260   52.1940 C.3   186  THR186      0.1794
     40  OG1       -6.2500   52.2750   51.8170 O.3   186  THR186     -0.2208
     41  CG2       -7.8180   50.7140   50.9220 C.3   186  THR186      0.0378
     42  N         -4.7220   53.9220   54.0360 N.3   188  LEU188     -0.1231
     43  CA        -3.8240   54.8650   53.3840 C.3   188  LEU188      0.1693
     44  C         -4.5630   56.1230   52.9620 C.2   188  LEU188      0.2592
     45  O         -5.7620   56.1090   52.6740 O.2   188  LEU188     -0.2718
     46  CB        -3.1710   54.2060   52.1650 C.3   188  LEU188      0.0284
     47  CG        -2.2710   53.0100   52.4740 C.3   188  LEU188      0.0019
     48  CD1       -1.4770   52.6050   51.2350 C.3   188  LEU188      0.0001
     49  CD2       -1.3310   53.3240   53.6220 C.3   188  LEU188      0.0001
     50  N         -3.8300   57.2300   52.8800 N.am  189  VAL189     -0.1966
     51  CA        -4.3760   58.4630   52.3150 C.3   189  VAL189      0.1727
     52  C         -3.6550   58.7320   50.9950 C.2   189  VAL189      0.2616
     53  O         -2.4260   58.7900   50.9820 O.2   189  VAL189     -0.2715
     54  CB        -4.1850   59.6540   53.2670 C.3   189  VAL189      0.0290
     55  CG1       -4.6870   60.9480   52.6330 C.3   189  VAL189      0.0023
     56  CG2       -4.9160   59.3770   54.5750 C.3   189  VAL189      0.0023
     57  N         -4.4070   58.8170   49.9060 N.am  190  HIS190     -0.1973
     58  CA        -3.7720   58.8730   48.5900 C.3   190  HIS190      0.1656
     59  C         -3.9250   60.2260   47.9150 C.2   190  HIS190      0.2291
     60  O         -4.9020   60.9360   48.1630 O.2   190  HIS190     -0.2864
     61  CB        -4.5060   57.8760   47.6680 C.3   190  HIS190      0.0771
     62  CG        -4.1720   56.4600   48.0120 C.ar  190  HIS190      0.0820
     63  ND1       -5.0450   55.6430   48.6990 N.ar  190  HIS190     -0.2267
     64  CD2       -3.0460   55.7430   47.7790 C.ar  190  HIS190      0.1154
     65  CE1       -4.4630   54.4630   48.8490 C.ar  190  HIS190      0.1986
     66  NE2       -3.2660   54.5030   48.3200 N.ar  190  HIS190     -0.2212
     67  N         -3.4610   61.2330   43.5060 N.3   192  PHE192     -0.1241
     68  CA        -3.2070   60.5140   42.2540 C.3   192  PHE192      0.1605
     69  C         -2.6490   61.4540   41.1860 C.2   192  PHE192      0.2264
     70  O         -2.9990   62.6340   41.1170 O.2   192  PHE192     -0.2867
     71  CB        -4.5160   59.9220   41.7250 C.3   192  PHE192      0.0534
     72  CG        -5.1340   58.8860   42.6230 C.ar  192  PHE192     -0.0203
     73  CD1       -4.3160   57.9930   43.3100 C.ar  192  PHE192     -0.0042
     74  CD2       -6.5020   58.8370   42.7900 C.ar  192  PHE192     -0.0042
     75  CE1       -4.8980   57.0290   44.1250 C.ar  192  PHE192     -0.0003
     76  CE2       -7.0800   57.8790   43.6120 C.ar  192  PHE192     -0.0003
     77  CZ        -6.2640   56.9820   44.2850 C.ar  192  PHE192     -0.0000
     78  N         -8.5370   61.9960   43.7010 N.3   203  ALA203     -0.1245
     79  CA        -8.8020   61.2860   44.9590 C.3   203  ALA203      0.1562
     80  C         -9.8200   62.0600   45.8010 C.2   203  ALA203      0.2260
     81  O        -10.7740   61.4680   46.2890 O.2   203  ALA203     -0.2867
     82  CB        -7.4990   61.1140   45.7300 C.3   203  ALA203      0.0290
     83  N        -13.3870   61.8930   44.1760 N.3   206  LEU206     -0.1231
     84  CA       -14.0310   60.5980   44.3590 C.3   206  LEU206      0.1693
     85  C        -14.6350   60.4680   45.7610 C.2   206  LEU206      0.2591
     86  O        -15.7340   59.9540   45.8900 O.2   206  LEU206     -0.2718
     87  CB       -13.0620   59.4470   44.1040 C.3   206  LEU206      0.0284
     88  CG       -12.5860   59.2480   42.6550 C.3   206  LEU206      0.0019
     89  CD1      -11.4520   58.2310   42.6570 C.3   206  LEU206      0.0001
     90  CD2      -13.7240   58.7750   41.7550 C.3   206  LEU206      0.0001
     91  N        -13.8800   60.9920   46.7350 N.am  207  LEU207     -0.1980
     92  CA       -14.2940   60.7420   48.1310 C.3   207  LEU207      0.1596
     93  C        -15.4220   61.6690   48.5410 C.2   207  LEU207      0.2287
     94  O        -15.9660   61.5490   49.6630 O.2   207  LEU207     -0.2864
     95  CB       -13.0760   60.9010   49.0580 C.3   207  LEU207      0.0297
     96  CG       -12.0420   59.7810   48.9310 C.3   207  LEU207      0.0022
     97  CD1      -10.7850   60.1770   49.6950 C.3   207  LEU207      0.0001
     98  CD2      -12.5680   58.4520   49.4460 C.3   207  LEU207      0.0001
@<TRIPOS>BOND
     1     6     8    1
     2     6     7    1
     3     6     5    1
     4     3     2    1
     5     3     4    2
     6     2     5    1
     7     2     1    1
     8    70    69    2
     9    69    68    1
    10    71    68    1
    11    71    72    1
    12    90    88    1
    13    68    67    1
    14    72    74   ar
    15    72    73   ar
    16    88    89    1
    17    88    87    1
    18    74    76   ar
    19    16    14    1
    20    73    75   ar
    21    76    77   ar
    22    78    79    1
    23    14    13    1
    24    87    84    1
    25    75    77   ar
    26    83    84    1
    27    84    85    1
    28     9    10    1
    29    79    82    1
    30    79    80    1
    31    13    10    1
    32    13    15    1
    33    10    11    1
    34    85    86    2
    35    85    91   am
    36    80    81    2
    37    91    92    1
    38    11    17   am
    39    11    12    2
    40    17    18    1
    41    22    21    1
    42    61    62    1
    43    61    58    1
    44    64    62   ar
    45    64    66   ar
    46    59    60    2
    47    59    58    1
    48    62    63   ar
    49    92    93    1
    50    92    95    1
    51    66    65   ar
    52    21    18    1
    53    21    23    1
    54    93    94    2
    55    58    57    1
    56    18    19    1
    57    63    65   ar
    58    96    95    1
    59    96    98    1
    60    96    97    1
    61    20    19    2
    62    19    24   am
    63    57    52   am
    64    24    25    1
    65    41    39    1
    66    53    52    2
    67    52    51    1
    68    48    47    1
    69    25    26    1
    70    25    28    1
    71    29    28    1
    72    29    30    1
    73    40    39    1
    74    46    47    1
    75    46    43    1
    76    39    36    1
    77    51    50    1
    78    51    54    1
    79    26    35   am
    80    26    27    2
    81    47    49    1
    82    35    36    1
    83    30    31    1
    84    55    54    1
    85    45    44    2
    86    50    44   am
    87    44    43    1
    88    36    37    1
    89    33    32    1
    90    54    56    1
    91    43    42    1
    92    31    32    2
    93    32    34    1
    94    37    38    2
