@<TRIPOS>MOLECULE
tmp/1b2mD01.pdb
 89 89 0 0 0
SMALL
GASTEIGER

@<TRIPOS>ATOM
      1  N         10.4290   26.6610    9.6910 N.3    43  ASN43      -0.1225
      2  CA        10.1540   27.1850   11.0190 C.3    43  ASN43       0.1785
      3  C          9.5310   26.2730   12.0600 C.2    43  ASN43       0.2597
      4  O          9.5960   26.5850   13.2490 O.2    43  ASN43      -0.2718
      5  CB         9.3370   28.4680   10.9000 C.3    43  ASN43       0.1169
      6  CG        10.0750   29.5620   10.1540 C.2    43  ASN43       0.2627
      7  OD1       11.1540   29.9870   10.5560 O.2    43  ASN43      -0.2716
      8  ND2        9.5020   30.0120    9.0520 N.am   43  ASN43      -0.0877
      9  N          8.9130   25.1790   11.6130 N.am   44  ASN44      -0.1960
     10  CA         8.2610   24.1930   12.4840 C.3    44  ASN44       0.1819
     11  C          6.9460   24.7090   13.0630 C.2    44  ASN44       0.2621
     12  O          6.7060   24.6640   14.2670 O.2    44  ASN44      -0.2715
     13  CB         9.2100   23.7190   13.5930 C.3    44  ASN44       0.1195
     14  CG         8.8450   22.3490   14.1660 C.2    44  ASN44       0.2630
     15  OD1        7.8760   21.7040   13.7540 O.2    44  ASN44      -0.2716
     16  ND2        9.6200   21.9100   15.1430 N.am   44  ASN44      -0.0877
     17  N          6.0890   25.2000   12.1780 N.am   45  TYR45      -0.1974
     18  CA         4.7740   25.6850   12.5680 C.3    45  TYR45       0.1639
     19  C          4.0140   24.5030   13.1740 C.2    45  TYR45       0.2290
     20  O          3.1740   24.6710   14.0540 O.2    45  TYR45      -0.2864
     21  CB         3.9990   26.1850   11.3330 C.3    45  TYR45       0.0560
     22  CG         4.6710   27.3170   10.5810 C.ar   45  TYR45      -0.0198
     23  CD1        5.6100   28.1240   11.2070 C.ar   45  TYR45      -0.0009
     24  CD2        4.3690   27.5780    9.2440 C.ar   45  TYR45      -0.0009
     25  CE1        6.2280   29.1520   10.5420 C.ar   45  TYR45       0.0417
     26  CE2        4.9980   28.6230    8.5580 C.ar   45  TYR45       0.0417
     27  CZ         5.9240   29.3980    9.2240 C.ar   45  TYR45       0.1957
     28  OH         6.5690   30.4280    8.5960 O.3    45  TYR45      -0.2866
     29  N          6.6270   19.8350   15.5040 N.3    48  PHE48      -0.1227
     30  CA         7.1340   18.4670   15.5480 C.3    48  PHE48       0.1736
     31  C          8.2470   18.4390   16.5660 C.2    48  PHE48       0.2595
     32  O          8.9760   19.4200   16.7010 O.2    48  PHE48      -0.2718
     33  CB         7.7690   18.0560   14.2110 C.3    48  PHE48       0.0547
     34  CG         6.8100   17.9380   13.0800 C.ar   48  PHE48      -0.0202
     35  CD1        5.6680   17.1830   13.2030 C.ar   48  PHE48      -0.0042
     36  CD2        7.0750   18.5640   11.8690 C.ar   48  PHE48      -0.0042
     37  CE1        4.7900   17.0430   12.1330 C.ar   48  PHE48      -0.0003
     38  CE2        6.2070   18.4320   10.7890 C.ar   48  PHE48      -0.0003
     39  CZ         5.0640   17.6690   10.9220 C.ar   48  PHE48      -0.0000
     40  N          8.4590   17.2780   17.1760 N.am   49  ASP49      -0.1960
     41  CA         9.5190   17.1260   18.1600 C.3    49  ASP49       0.1840
     42  C         10.8400   16.6440   17.5490 C.2    49  ASP49       0.2622
     43  O         11.1820   15.4700   17.6340 O.2    49  ASP49      -0.2715
     44  CB         9.0830   16.1910   19.2840 C.3    49  ASP49       0.1450
     45  CG         9.9320   16.3550   20.5350 C.2    49  ASP49       0.3671
     46  OD1       10.5190   17.4570   20.7290 O.co2  49  ASP49      -0.2456
     47  OD2       10.0070   15.3870   21.3290 O.co2  49  ASP49      -0.2456
     48  N         11.5580   17.5570   16.9010 N.am   50  PHE50      -0.1974
     49  CA        12.8400   17.2420   16.2860 C.3    50  PHE50       0.1639
     50  C         13.8830   17.1320   17.3780 C.2    50  PHE50       0.2290
     51  O         13.9440   17.9740   18.2700 O.2    50  PHE50      -0.2864
     52  CB        13.2350   18.3330   15.2910 C.3    50  PHE50       0.0560
     53  CG        12.3340   18.4080   14.0890 C.ar   50  PHE50      -0.0200
     54  CD1       11.8560   17.2470   13.4850 C.ar   50  PHE50      -0.0042
     55  CD2       11.9830   19.6320   13.5430 C.ar   50  PHE50      -0.0042
     56  CE1       11.0460   17.3150   12.3560 C.ar   50  PHE50      -0.0003
     57  CE2       11.1770   19.7070   12.4180 C.ar   50  PHE50      -0.0003
     58  CZ        10.7100   18.5560   11.8230 C.ar   50  PHE50      -0.0000
     59  N         17.2330   17.2380   16.9430 N.3    52  VAL52      -0.1231
     60  CA        18.3780   18.1130   16.6770 C.3    52  VAL52       0.1692
     61  C         17.9940   19.5840   16.8520 C.2    52  VAL52       0.2593
     62  O         16.8220   19.9360   16.8240 O.2    52  VAL52      -0.2718
     63  CB        18.9680   17.8750   15.2680 C.3    52  VAL52       0.0266
     64  CG1       19.4430   16.4460   15.1400 C.3    52  VAL52       0.0020
     65  CG2       17.9560   18.1870   14.2000 C.3    52  VAL52       0.0020
     66  N         18.9880   20.4500   16.9610 N.am   53  SER53      -0.1938
     67  CA        18.7370   21.8760   17.1710 C.3    53  SER53       0.2055
     68  C         18.4580   22.7450   15.9440 C.2    53  SER53       0.2643
     69  O         18.8770   22.4110   14.8300 O.2    53  SER53      -0.2714
     70  CB        19.8810   22.4760   17.9870 C.3    53  SER53       0.2130
     71  OG        20.0080   21.7810   19.2220 O.3    53  SER53      -0.2179
     72  N         17.7230   23.8410   16.1680 N.am   54  SER54      -0.1949
     73  CA        17.3730   24.8160   15.1260 C.3    54  SER54       0.1924
     74  C         18.6590   25.4570   14.6360 C.2    54  SER54       0.2314
     75  O         19.6490   25.4860   15.3560 O.2    54  SER54      -0.2863
     76  CB        16.4760   25.9270   15.7020 C.3    54  SER54       0.2116
     77  OG        15.4190   25.4070   16.4930 O.3    54  SER54      -0.2180
     78  N         16.1880   24.8690   11.0350 N.3    56  TYR56      -0.1241
     79  CA        15.8590   23.7490   10.1750 C.3    56  TYR56       0.1605
     80  C         15.6420   24.2550    8.7700 C.2    56  TYR56       0.2264
     81  O         15.2480   25.4070    8.5850 O.2    56  TYR56      -0.2867
     82  CB        14.5890   23.0830   10.6610 C.3    56  TYR56       0.0534
     83  CG        14.6580   22.6350   12.0920 C.ar   56  TYR56      -0.0201
     84  CD1       15.6720   21.7930   12.5300 C.ar   56  TYR56      -0.0009
     85  CD2       13.7130   23.0570   13.0100 C.ar   56  TYR56      -0.0009
     86  CE1       15.7420   21.3830   13.8560 C.ar   56  TYR56       0.0417
     87  CE2       13.7690   22.6600   14.3270 C.ar   56  TYR56       0.0417
     88  CZ        14.7850   21.8260   14.7450 C.ar   56  TYR56       0.1957
     89  OH        14.8330   21.4590   16.0600 O.3    56  TYR56      -0.2866
@<TRIPOS>BOND
     1    26    27   ar
     2    26    24   ar
     3    81    80    2
     4    28    27    1
     5    80    79    1
     6     8     6   am
     7    27    25   ar
     8    24    22   ar
     9     1     2    1
    10     6     7    2
    11     6     5    1
    12    79    82    1
    13    79    78    1
    14    25    23   ar
    15    22    23   ar
    16    22    21    1
    17    82    83    1
    18    38    39   ar
    19    38    36   ar
    20     5     2    1
    21    39    37   ar
    22     2     3    1
    23    21    18    1
    24     9     3   am
    25     9    10    1
    26    58    56   ar
    27    58    57   ar
    28    36    34   ar
    29     3     4    2
    30    83    84   ar
    31    83    85   ar
    32    37    35   ar
    33    17    18    1
    34    17    11   am
    35    56    54   ar
    36    57    55   ar
    37    10    11    1
    38    10    13    1
    39    84    86   ar
    40    18    19    1
    41    85    87   ar
    42    11    12    2
    43    34    35   ar
    44    34    33    1
    45    19    20    2
    46    54    53   ar
    47    55    53   ar
    48    13    14    1
    49    15    14    2
    50    86    88   ar
    51    53    52    1
    52    14    16   am
    53    65    63    1
    54    33    30    1
    55    87    88   ar
    56    74    73    1
    57    74    75    2
    58    88    89    1
    59    69    68    2
    60    73    76    1
    61    73    72    1
    62    64    63    1
    63    63    60    1
    64    52    49    1
    65    29    30    1
    66    30    31    1
    67    76    77    1
    68    68    72   am
    69    68    67    1
    70    49    48    1
    71    49    50    1
    72    31    32    2
    73    31    40   am
    74    60    61    1
    75    60    59    1
    76    62    61    2
    77    61    66   am
    78    48    42   am
    79    66    67    1
    80    67    70    1
    81    40    41    1
    82    50    51    2
    83    42    43    2
    84    42    41    1
    85    70    71    1
    86    41    44    1
    87    44    45    1
    88    45    46   ar
    89    45    47   ar
