@<TRIPOS>MOLECULE
tmp/1b2mD00.pdb
 145 144 0 0 0
SMALL
GASTEIGER

@<TRIPOS>ATOM
      1  N         10.4500   28.2260   -5.8860 N.3    36  ASN36      -0.1240
      2  CA        10.2250   28.4600   -4.4590 C.3    36  ASN36       0.1653
      3  C         11.5190   28.4910   -3.6390 C.2    36  ASN36       0.2266
      4  O         11.4830   28.4350   -2.4190 O.2    36  ASN36      -0.2867
      5  CB         9.2610   27.4240   -3.8680 C.3    36  ASN36       0.1155
      6  CG         7.8770   27.3980   -4.5540 C.2    36  ASN36       0.2627
      7  OD1        7.4210   28.3630   -5.1700 O.2    36  ASN36      -0.2716
      8  ND2        7.2040   26.2650   -4.4250 N.am   36  ASN36      -0.0877
      9  N         14.4870   26.3200   -2.9120 N.3    38  TYR38      -0.1241
     10  CA        14.7910   25.2490   -1.9600 C.3    38  TYR38       0.1605
     11  C         16.2960   25.0770   -2.0670 C.2    38  TYR38       0.2264
     12  O         16.8430   25.1880   -3.1580 O.2    38  TYR38      -0.2867
     13  CB        14.0950   23.9340   -2.3420 C.3    38  TYR38       0.0534
     14  CG        12.5870   24.0120   -2.3230 C.ar   38  TYR38      -0.0201
     15  CD1       11.8840   24.1270   -1.1190 C.ar   38  TYR38      -0.0009
     16  CD2       11.8620   23.9950   -3.5080 C.ar   38  TYR38      -0.0009
     17  CE1       10.4840   24.2230   -1.1070 C.ar   38  TYR38       0.0417
     18  CE2       10.4640   24.0870   -3.5100 C.ar   38  TYR38       0.0417
     19  CZ         9.7840   24.1990   -2.3050 C.ar   38  TYR38       0.1957
     20  OH         8.4060   24.2850   -2.3200 O.3    38  TYR38      -0.2866
     21  N         15.3140   26.1120    2.0620 N.3    40  HIS40      -0.1226
     22  CA        15.0130   27.3290    2.7850 C.3    40  HIS40       0.1752
     23  C         14.5090   27.0200    4.1740 C.2    40  HIS40       0.2596
     24  O         14.1330   25.8780    4.4680 O.2    40  HIS40      -0.2718
     25  CB        14.0740   28.2680    2.0020 C.3    40  HIS40       0.0759
     26  CG        12.6970   27.7370    1.7650 C.ar   40  HIS40       0.0818
     27  ND1       12.1180   27.7330    0.5190 N.ar   40  HIS40      -0.2268
     28  CD2       11.7630   27.2460    2.6190 C.ar   40  HIS40       0.1154
     29  CE1       10.8860   27.2620    0.6070 C.ar   40  HIS40       0.1986
     30  NE2       10.6470   26.9620    1.8730 N.ar   40  HIS40      -0.2212
     31  N         14.5260   28.0450    5.0180 N.am   41  LYS41      -0.1966
     32  CA        14.1200   27.9550    6.4190 C.3    41  LYS41       0.1728
     33  C         12.8190   27.2190    6.6800 C.2    41  LYS41       0.2616
     34  O         11.8060   27.4710    6.0330 O.2    41  LYS41      -0.2715
     35  CB        14.0230   29.3550    7.0190 C.3    41  LYS41       0.0311
     36  CG        14.1870   29.4340    8.5260 C.3    41  LYS41       0.0038
     37  CD        15.6550   29.2630    8.8820 C.3    41  LYS41       0.0206
     38  CE        16.1370   30.3180    9.8750 C.3    41  LYS41       0.1093
     39  NZ        15.3940   30.2800   11.1700 N.3    41  LYS41      -0.1314
     40  N         12.8760   26.2660    7.5900 N.am   42  TYR42      -0.1960
     41  CA        11.6970   25.5200    7.9690 C.3    42  TYR42       0.1771
     42  C         11.5070   25.9290    9.4300 C.2    42  TYR42       0.2620
     43  O         12.2820   25.5390   10.3010 O.2    42  TYR42      -0.2715
     44  CB        11.9180   24.0050    7.8300 C.3    42  TYR42       0.0574
     45  CG        10.7550   23.2000    8.3370 C.ar   42  TYR42      -0.0198
     46  CD1        9.5940   23.0510    7.5760 C.ar   42  TYR42      -0.0009
     47  CD2       10.7830   22.6530    9.6130 C.ar   42  TYR42      -0.0009
     48  CE1        8.4880   22.3900    8.0890 C.ar   42  TYR42       0.0417
     49  CE2        9.6890   21.9860   10.1280 C.ar   42  TYR42       0.0417
     50  CZ         8.5430   21.8620    9.3690 C.ar   42  TYR42       0.1957
     51  OH         7.4490   21.2340    9.9250 O.3    42  TYR42      -0.2866
     52  N         10.4290   26.6610    9.6910 N.am   43  ASN43      -0.1958
     53  CA        10.1540   27.1850   11.0190 C.3    43  ASN43       0.1819
     54  C          9.5310   26.2730   12.0600 C.2    43  ASN43       0.2621
     55  O          9.5960   26.5850   13.2490 O.2    43  ASN43      -0.2715
     56  CB         9.3370   28.4680   10.9000 C.3    43  ASN43       0.1195
     57  CG        10.0750   29.5620   10.1540 C.2    43  ASN43       0.2630
     58  OD1       11.1540   29.9870   10.5560 O.2    43  ASN43      -0.2716
     59  ND2        9.5020   30.0120    9.0520 N.am   43  ASN43      -0.0877
     60  N          8.9130   25.1790   11.6130 N.am   44  ASN44      -0.1958
     61  CA         8.2610   24.1930   12.4840 C.3    44  ASN44       0.1819
     62  C          6.9460   24.7090   13.0630 C.2    44  ASN44       0.2621
     63  O          6.7060   24.6640   14.2670 O.2    44  ASN44      -0.2715
     64  CB         9.2100   23.7190   13.5930 C.3    44  ASN44       0.1195
     65  CG         8.8450   22.3490   14.1660 C.2    44  ASN44       0.2630
     66  OD1        7.8760   21.7040   13.7540 O.2    44  ASN44      -0.2716
     67  ND2        9.6200   21.9100   15.1430 N.am   44  ASN44      -0.0877
     68  N          6.0890   25.2000   12.1780 N.am   45  TYR45      -0.1960
     69  CA         4.7740   25.6850   12.5680 C.3    45  TYR45       0.1771
     70  C          4.0140   24.5030   13.1740 C.2    45  TYR45       0.2619
     71  O          3.1740   24.6710   14.0540 O.2    45  TYR45      -0.2715
     72  CB         3.9990   26.1850   11.3330 C.3    45  TYR45       0.0574
     73  CG         4.6710   27.3170   10.5810 C.ar   45  TYR45      -0.0198
     74  CD1        5.6100   28.1240   11.2070 C.ar   45  TYR45      -0.0009
     75  CD2        4.3690   27.5780    9.2440 C.ar   45  TYR45      -0.0009
     76  CE1        6.2280   29.1520   10.5420 C.ar   45  TYR45       0.0417
     77  CE2        4.9980   28.6230    8.5580 C.ar   45  TYR45       0.0417
     78  CZ         5.9240   29.3980    9.2240 C.ar   45  TYR45       0.1957
     79  OH         6.5690   30.4280    8.5960 O.3    45  TYR45      -0.2866
     80  N          4.3120   23.3070   12.6740 N.am   46  GLU46      -0.1977
     81  CA         3.6500   22.0850   13.1210 C.3    46  GLU46       0.1602
     82  C          3.9950   21.6740   14.5400 C.2    46  GLU46       0.2287
     83  O          3.2610   20.9120   15.1610 O.2    46  GLU46      -0.2864
     84  CB         3.9450   20.9250   12.1710 C.3    46  GLU46       0.0415
     85  CG         3.2010   20.9680   10.8560 C.3    46  GLU46       0.1163
     86  CD         3.7860   21.9700    9.8860 C.2    46  GLU46       0.3649
     87  OE1        4.9750   22.3100   10.0180 O.co2  46  GLU46      -0.2457
     88  OE2        3.0560   22.4140    8.9820 O.co2  46  GLU46      -0.2457
     89  N         14.1340   22.9520    4.8020 N.3    58  GLU58      -0.1245
     90  CA        13.3800   21.9250    4.0940 C.3    58  GLU58       0.1567
     91  C         13.8960   21.7840    2.6780 C.2    58  GLU58       0.2260
     92  O         14.1400   22.7730    1.9770 O.2    58  GLU58      -0.2867
     93  CB        11.8720   22.2030    4.1130 C.3    58  GLU58       0.0388
     94  CG        11.3750   23.3040    3.1960 C.3    58  GLU58       0.1160
     95  CD         9.8700   23.3350    3.1410 C.2    58  GLU58       0.3649
     96  OE1        9.2660   23.9420    4.0330 O.co2  58  GLU58      -0.2457
     97  OE2        9.2810   22.7460    2.2200 O.co2  58  GLU58      -0.2457
     98  N          9.4700   16.0520    1.8710 N.3    77  ARG77      -0.1245
     99  CA        10.6600   16.8160    2.2240 C.3    77  ARG77       0.1563
    100  C         11.5350   16.1460    3.2810 C.2    77  ARG77       0.2260
    101  O         11.0620   15.3780    4.1120 O.2    77  ARG77      -0.2867
    102  CB        10.2540   18.1920    2.7930 C.3    77  ARG77       0.0307
    103  CG         9.1910   18.9270    2.0070 C.3    77  ARG77       0.0489
    104  CD         9.7500   19.5300    0.7100 C.3    77  ARG77       0.2205
    105  NE         8.7150   20.3340    0.0620 N.pl3  77  ARG77      -0.0865
    106  CZ         8.0100   19.9550   -0.9920 C.cat  77  ARG77       0.5346
    107  NH1        8.2280   18.7780   -1.5410 N.pl3  77  ARG77       0.1354
    108  NH2        7.0780   20.7550   -1.4880 N.pl3  77  ARG77       0.1354
    109  N          3.2790   16.4780    2.8440 N.3    92  HIS92      -0.1241
    110  CA         2.0090   17.1810    2.6950 C.3    92  HIS92       0.1621
    111  C          0.9000   16.1420    2.5780 C.2    92  HIS92       0.2264
    112  O         -0.2700   16.4440    2.8370 O.2    92  HIS92      -0.2867
    113  CB         2.0070   18.0270    1.4110 C.3    92  HIS92       0.0745
    114  CG         2.6710   19.3580    1.5590 C.ar   92  HIS92       0.0817
    115  ND1        2.3670   20.2250    2.5800 N.ar   92  HIS92      -0.2268
    116  CD2        3.6390   19.9530    0.8220 C.ar   92  HIS92       0.1154
    117  CE1        3.1230   21.3070    2.4710 C.ar   92  HIS92       0.1986
    118  NE2        3.8990   21.1640    1.4150 N.ar   92  HIS92      -0.2212
    119  N         -1.5060   23.5420    3.5350 N.3    98  ASN98      -0.1225
    120  CA        -0.0520   23.5270    3.4080 C.3    98  ASN98       0.1785
    121  C          0.6660   22.9320    4.5950 C.2    98  ASN98       0.2597
    122  O          1.8850   23.0230    4.7060 O.2    98  ASN98      -0.2718
    123  CB         0.4790   24.9260    3.1240 C.3    98  ASN98       0.1169
    124  CG         0.2940   25.3230    1.6870 C.2    98  ASN98       0.2627
    125  OD1        0.8130   24.6640    0.7820 O.2    98  ASN98      -0.2716
    126  ND2       -0.4600   26.3940    1.4590 N.am   98  ASN98      -0.0877
    127  N         -0.0840   22.2670    5.4590 N.am   99  ASN99      -0.1960
    128  CA         0.5010   21.6380    6.6270 C.3    99  ASN99       0.1819
    129  C          1.2460   20.3870    6.2180 C.2    99  ASN99       0.2621
    130  O          1.1270   19.9060    5.0760 O.2    99  ASN99      -0.2715
    131  CB        -0.5700   21.2630    7.6470 C.3    99  ASN99       0.1195
    132  CG        -1.3230   22.4650    8.1750 C.2    99  ASN99       0.2630
    133  OD1       -0.8120   23.5780    8.1850 O.2    99  ASN99      -0.2716
    134  ND2       -2.5510   22.2390    8.6170 N.am   99  ASN99      -0.0877
    135  N          2.0170   19.8720    7.1640 N.am  100  PHE100     -0.1974
    136  CA         2.8220   18.6640    6.9880 C.3   100  PHE100      0.1639
    137  C          2.4770   17.7000    8.1180 C.2   100  PHE100      0.2290
    138  O          1.8370   18.0820    9.1040 O.2   100  PHE100     -0.2864
    139  CB         4.3190   18.9600    7.1600 C.3   100  PHE100      0.0560
    140  CG         4.9610   19.6150    6.0020 C.ar  100  PHE100     -0.0200
    141  CD1        5.1850   18.9140    4.8290 C.ar  100  PHE100     -0.0042
    142  CD2        5.4230   20.9260    6.1030 C.ar  100  PHE100     -0.0042
    143  CE1        5.8730   19.5130    3.7640 C.ar  100  PHE100     -0.0003
    144  CE2        6.1010   21.5240    5.0560 C.ar  100  PHE100     -0.0003
    145  CZ         6.3270   20.8120    3.8830 C.ar  100  PHE100     -0.0000
@<TRIPOS>BOND
     1     1     2    1
     2     7     6    2
     3     6     8   am
     4     6     5    1
     5     2     5    1
     6     2     3    1
     7     3     4    2
     8    18    16   ar
     9    18    19   ar
    10    16    14   ar
    11    12    11    2
    12     9    10    1
    13    13    14    1
    14    13    10    1
    15    14    15   ar
    16    20    19    1
    17    19    17   ar
    18    11    10    1
    19   107   106    1
    20   108   106    1
    21    15    17   ar
    22   106   105    2
    23   105   104    1
    24    27    29   ar
    25    27    26   ar
    26    29    30   ar
    27   104   103    1
    28   125   124    2
    29   116   118   ar
    30   116   114   ar
    31   113   114    1
    32   113   110    1
    33   118   117   ar
    34   126   124   am
    35   114   115   ar
    36   124   123    1
    37    26    25    1
    38    26    28   ar
    39    98    99    1
    40    30    28   ar
    41    92    91    2
    42    25    22    1
    43   103   102    1
    44    21    22    1
    45    97    95   ar
    46    99   102    1
    47    99   100    1
    48   117   115   ar
    49   111   110    1
    50   111   112    2
    51    91    90    1
    52   110   109    1
    53    22    23    1
    54   123   120    1
    55    95    94    1
    56    95    96   ar
    57    94    93    1
    58   100   101    2
    59   120   119    1
    60   120   121    1
    61   143   145   ar
    62   143   141   ar
    63   145   144   ar
    64    90    93    1
    65    90    89    1
    66    23    24    2
    67    23    31   am
    68   121   122    2
    69   121   127   am
    70   141   140   ar
    71    31    32    1
    72   144   142   ar
    73   130   129    2
    74   127   128    1
    75   140   142   ar
    76   140   139    1
    77    34    33    2
    78   129   128    1
    79   129   135   am
    80    32    33    1
    81    32    35    1
    82   128   131    1
    83    33    40   am
    84   136   139    1
    85   136   135    1
    86   136   137    1
    87    35    36    1
    88    46    48   ar
    89    46    45   ar
    90    40    41    1
    91   131   132    1
    92    44    41    1
    93    44    45    1
    94    41    42    1
    95    48    50   ar
    96   137   138    2
    97   132   133    2
    98   132   134   am
    99    45    47   ar
   100    36    37    1
   101    77    78   ar
   102    77    75   ar
   103    79    78    1
   104    37    38    1
   105    88    86   ar
   106    59    57   am
   107    78    76   ar
   108    75    73   ar
   109    50    51    1
   110    50    49   ar
   111    42    52   am
   112    42    43    2
   113    47    49   ar
   114    52    53    1
   115    38    39    1
   116    86    87   ar
   117    86    85    1
   118    57    58    2
   119    57    56    1
   120    76    74   ar
   121    73    74   ar
   122    73    72    1
   123    85    84    1
   124    56    53    1
   125    53    54    1
   126    72    69    1
   127    60    54   am
   128    60    61    1
   129    54    55    2
   130    84    81    1
   131    68    69    1
   132    68    62   am
   133    61    62    1
   134    61    64    1
   135    69    70    1
   136    80    81    1
   137    80    70   am
   138    62    63    2
   139    81    82    1
   140    70    71    2
   141    64    65    1
   142    66    65    2
   143    65    67   am
   144    82    83    2
