@<TRIPOS>MOLECULE
tmp/1b33F00.pdb
 93 91 0 0 0
SMALL
GASTEIGER

@<TRIPOS>ATOM
      1  N         59.7710   70.8140   25.8640 N.3    53  LYS53      -0.1245
      2  CA        60.8930   71.6500   26.2550 C.3    53  LYS53       0.1561
      3  C         60.5260   73.1280   26.3330 C.2    53  LYS53       0.2260
      4  O         60.8230   73.7840   27.3390 O.2    53  LYS53      -0.2867
      5  CB        62.0740   71.4720   25.3040 C.3    53  LYS53       0.0271
      6  CG        63.2950   72.2800   25.7200 C.3    53  LYS53       0.0035
      7  CD        64.3940   72.1980   24.6930 C.3    53  LYS53       0.0206
      8  CE        65.6330   72.9350   25.1660 C.3    53  LYS53       0.1093
      9  NZ        66.7410   72.8420   24.1830 N.3    53  LYS53      -0.1314
     10  N         60.4120   76.6720   34.4260 N.3    61  LEU61      -0.1231
     11  CA        61.7870   76.9630   34.8100 C.3    61  LEU61       0.1693
     12  C         62.0320   78.3060   35.5040 C.2    61  LEU61       0.2592
     13  O         61.2380   79.2450   35.4050 O.2    61  LEU61      -0.2718
     14  CB        62.7200   76.8360   33.6030 C.3    61  LEU61       0.0284
     15  CG        62.7140   75.5290   32.8090 C.3    61  LEU61       0.0019
     16  CD1       63.8710   75.5720   31.8290 C.3    61  LEU61       0.0001
     17  CD2       62.8110   74.3120   33.7340 C.3    61  LEU61       0.0001
     18  N         63.1270   78.3600   36.2540 N.am   62  TYR62      -0.1976
     19  CA        63.5540   79.5600   36.9610 C.3    62  TYR62       0.1639
     20  C         62.5310   80.1420   37.9100 C.2    62  TYR62       0.2290
     21  O         62.4740   81.3670   38.1130 O.2    62  TYR62      -0.2864
     22  CB        64.0120   80.6160   35.9520 C.3    62  TYR62       0.0560
     23  CG        65.1220   80.1210   35.0590 C.ar   62  TYR62      -0.0198
     24  CD1       66.4190   79.9820   35.5510 C.ar   62  TYR62      -0.0009
     25  CD2       64.8760   79.7650   33.7360 C.ar   62  TYR62      -0.0009
     26  CE1       67.4400   79.5020   34.7560 C.ar   62  TYR62       0.0417
     27  CE2       65.8980   79.2850   32.9260 C.ar   62  TYR62       0.0417
     28  CZ        67.1760   79.1580   33.4490 C.ar   62  TYR62       0.1957
     29  OH        68.2060   78.7010   32.6730 O.3    62  TYR62      -0.2866
     30  N         61.1120   74.7710   40.5670 N.3    66  THR66      -0.1203
     31  CA        62.3360   74.0310   40.2850 C.3    66  THR66       0.1994
     32  C         63.4000   74.1530   41.3620 C.2    66  THR66       0.2617
     33  O         64.3600   73.3750   41.3870 O.2    66  THR66      -0.2717
     34  CB        62.9510   74.4600   38.9530 C.3    66  THR66       0.1784
     35  OG1       63.1710   75.8760   38.9640 O.3    66  THR66      -0.2211
     36  CG2       62.0310   74.0850   37.7930 C.3    66  THR66       0.0376
     37  N         63.2670   75.1590   42.2180 N.am   67  ARG67      -0.1979
     38  CA        64.2250   75.3600   43.2940 C.3    67  ARG67       0.1597
     39  C         63.8720   74.4990   44.4920 C.2    67  ARG67       0.2287
     40  O         62.7420   74.0210   44.6070 O.2    67  ARG67      -0.2864
     41  CB        64.2560   76.8230   43.7180 C.3    67  ARG67       0.0334
     42  CG        64.9390   77.7250   42.7290 C.3    67  ARG67       0.0492
     43  CD        65.2000   79.1060   43.3090 C.3    67  ARG67       0.2205
     44  NE        64.0010   79.9360   43.4290 N.pl3  67  ARG67      -0.0865
     45  CZ        63.5180   80.7070   42.4530 C.cat  67  ARG67       0.5346
     46  NH1       64.1180   80.7480   41.2680 N.pl3  67  ARG67       0.1354
     47  NH2       62.4450   81.4570   42.6620 N.pl3  67  ARG67       0.1354
     48  N         59.1470   70.3970   41.6040 N.3    71  MET71      -0.1230
     49  CA        59.9920   69.9650   40.4890 C.3    71  MET71       0.1702
     50  C         61.4580   69.8830   40.9220 C.2    71  MET71       0.2592
     51  O         62.3390   69.6800   40.0910 O.2    71  MET71      -0.2718
     52  CB        59.8860   70.9130   39.3040 C.3    71  MET71       0.0401
     53  CG        58.9290   70.4980   38.2250 C.3    71  MET71       0.0596
     54  SD        59.1080   71.6010   36.8060 S.3    71  MET71      -0.1393
     55  CE        59.9700   70.5420   35.6680 C.3    71  MET71       0.0692
     56  N         61.7330   70.1110   42.2040 N.am   72  TYR72      -0.1962
     57  CA        63.0980   70.0160   42.6870 C.3    72  TYR72       0.1771
     58  C         63.4510   68.5320   42.8640 C.2    72  TYR72       0.2620
     59  O         62.6250   67.7390   43.3230 O.2    72  TYR72      -0.2715
     60  CB        63.2730   70.7820   43.9890 C.3    72  TYR72       0.0574
     61  CG        64.6720   70.6570   44.5340 C.ar   72  TYR72      -0.0198
     62  CD1       65.7630   71.1780   43.8330 C.ar   72  TYR72      -0.0009
     63  CD2       64.9160   69.9710   45.7240 C.ar   72  TYR72      -0.0009
     64  CE1       67.0650   71.0090   44.3020 C.ar   72  TYR72       0.0417
     65  CE2       66.2070   69.7990   46.2030 C.ar   72  TYR72       0.0417
     66  CZ        67.2800   70.3150   45.4890 C.ar   72  TYR72       0.1957
     67  OH        68.5630   70.1020   45.9440 O.3    72  TYR72      -0.2866
     68  N         64.7070   68.2140   42.5540 N.am   73  THR73      -0.1937
     69  CA        65.3280   66.8790   42.5580 C.3    73  THR73       0.2028
     70  C         65.1410   66.3700   41.1250 C.2    73  THR73       0.2642
     71  O         64.0870   66.5620   40.5120 O.2    73  THR73      -0.2714
     72  CB        64.7860   65.8210   43.6390 C.3    73  THR73       0.1808
     73  OG1       63.4740   65.3440   43.2960 O.3    73  THR73      -0.2208
     74  CG2       64.7850   66.4010   45.0470 C.3    73  THR73       0.0379
     75  N         66.1940   65.7960   40.5650 N.am   74  THR74      -0.1950
     76  CA        66.1500   65.2880   39.2020 C.3    74  THR74       0.1897
     77  C         65.0180   64.2750   38.9660 C.2    74  THR74       0.2313
     78  O         64.4970   64.1640   37.8530 O.2    74  THR74      -0.2863
     79  CB        67.5010   64.6690   38.8220 C.3    74  THR74       0.1794
     80  OG1       67.8800   63.7280   39.8320 O.3    74  THR74      -0.2208
     81  CG2       68.5800   65.7460   38.6980 C.3    74  THR74       0.0378
     82  N         61.7530   66.3500   38.4730 N.3    77  TYR77      -0.1241
     83  CA        61.8380   67.0690   37.2120 C.3    77  TYR77       0.1605
     84  C         61.4810   66.0860   36.0990 C.2    77  TYR77       0.2264
     85  O         60.6010   66.3560   35.2770 O.2    77  TYR77      -0.2867
     86  CB        63.2540   67.6110   36.9930 C.3    77  TYR77       0.0534
     87  CG        63.3830   68.6070   35.8480 C.ar   77  TYR77      -0.0201
     88  CD1       63.2100   68.2120   34.5150 C.ar   77  TYR77      -0.0009
     89  CD2       63.7080   69.9400   36.0990 C.ar   77  TYR77      -0.0009
     90  CE1       63.3590   69.1230   33.4670 C.ar   77  TYR77       0.0417
     91  CE2       63.8620   70.8550   35.0600 C.ar   77  TYR77       0.0417
     92  CZ        63.6880   70.4420   33.7530 C.ar   77  TYR77       0.1957
     93  OH        63.8560   71.3490   32.7370 O.3    77  TYR77      -0.2866
@<TRIPOS>BOND
     1     9     8    1
     2     7     8    1
     3     7     6    1
     4     5     6    1
     5     5     2    1
     6     1     2    1
     7     2     3    1
     8     3     4    2
     9    16    15    1
    10    29    28    1
    11    93    92    1
    12    15    14    1
    13    15    17    1
    14    27    28   ar
    15    27    25   ar
    16    28    26   ar
    17    90    92   ar
    18    90    88   ar
    19    14    11    1
    20    25    23   ar
    21    92    91   ar
    22    10    11    1
    23    88    87   ar
    24    26    24   ar
    25    11    12    1
    26    23    24   ar
    27    23    22    1
    28    91    89   ar
    29    85    84    2
    30    13    12    2
    31    12    18   am
    32    55    54    1
    33    87    89   ar
    34    87    86    1
    35    22    19    1
    36    84    83    1
    37    18    19    1
    38    54    53    1
    39    19    20    1
    40    86    83    1
    41    83    82    1
    42    36    34    1
    43    78    77    2
    44    20    21    2
    45    53    52    1
    46    81    79    1
    47    79    76    1
    48    79    80    1
    49    34    35    1
    50    34    31    1
    51    77    76    1
    52    76    75    1
    53    52    49    1
    54    51    50    2
    55    31    30    1
    56    31    32    1
    57    49    50    1
    58    49    48    1
    59    71    70    2
    60    75    70   am
    61    50    56   am
    62    70    69    1
    63    46    45    1
    64    32    33    2
    65    32    37   am
    66    56    57    1
    67    37    38    1
    68    45    47    1
    69    45    44    2
    70    68    69    1
    71    68    58   am
    72    69    72    1
    73    57    58    1
    74    57    60    1
    75    42    43    1
    76    42    41    1
    77    58    59    2
    78    38    41    1
    79    38    39    1
    80    73    72    1
    81    43    44    1
    82    72    74    1
    83    62    64   ar
    84    62    61   ar
    85    60    61    1
    86    64    66   ar
    87    39    40    2
    88    61    63   ar
    89    66    67    1
    90    66    65   ar
    91    63    65   ar
