@<TRIPOS>MOLECULE
tmp/1b33N01.pdb
 107 105 0 0 0
SMALL
GASTEIGER

@<TRIPOS>ATOM
      1  N         98.3130   -6.0830   87.9840 N.3     2  ARG2       -0.1245
      2  CA        98.8510   -4.8510   88.5620 C.3     2  ARG2        0.1563
      3  C         98.3080   -3.6390   87.8140 C.2     2  ARG2        0.2260
      4  O         97.9980   -3.7220   86.6180 O.2     2  ARG2       -0.2867
      5  CB       100.3930   -4.8590   88.5800 C.3     2  ARG2        0.0307
      6  CG       101.0550   -5.2910   87.2840 C.3     2  ARG2        0.0489
      7  CD       101.9240   -6.5360   87.4810 C.3     2  ARG2        0.2205
      8  NE       103.3530   -6.2230   87.4930 N.pl3   2  ARG2       -0.0865
      9  CZ       104.2120   -6.5530   86.5270 C.cat   2  ARG2        0.5346
     10  NH1      103.8070   -7.2450   85.4670 N.pl3   2  ARG2        0.1354
     11  NH2      105.4880   -6.2050   86.6370 N.pl3   2  ARG2        0.1354
     12  N         98.4330    0.8620   87.1710 N.3     4  PHE4       -0.1241
     13  CA        99.2020    2.1160   87.1240 C.3     4  PHE4        0.1605
     14  C         98.2240    3.2930   87.3100 C.2     4  PHE4        0.2264
     15  O         97.0970    3.2480   86.8100 O.2     4  PHE4       -0.2867
     16  CB        99.8570    2.2950   85.7490 C.3     4  PHE4        0.0534
     17  CG       101.1830    1.6170   85.5960 C.ar    4  PHE4       -0.0203
     18  CD1      102.3330    2.1750   86.1620 C.ar    4  PHE4       -0.0042
     19  CD2      101.2980    0.4620   84.8240 C.ar    4  PHE4       -0.0042
     20  CE1      103.5790    1.5980   85.9580 C.ar    4  PHE4       -0.0003
     21  CE2      102.5370   -0.1250   84.6110 C.ar    4  PHE4       -0.0003
     22  CZ       103.6840    0.4430   85.1790 C.ar    4  PHE4       -0.0000
     23  N         98.5050   -2.6110   83.9650 N.3    33  TYR33      -0.1227
     24  CA        99.8700   -2.7750   83.4430 C.3    33  TYR33       0.1736
     25  C         99.8970   -3.3060   82.0090 C.2    33  TYR33       0.2595
     26  O        100.6320   -2.7980   81.1600 O.2    33  TYR33      -0.2718
     27  CB       100.6780   -3.7130   84.3440 C.3    33  TYR33       0.0548
     28  CG       102.1120   -3.9190   83.9020 C.ar   33  TYR33      -0.0200
     29  CD1      102.4440   -4.8780   82.9390 C.ar   33  TYR33      -0.0009
     30  CD2      103.1390   -3.1530   84.4490 C.ar   33  TYR33      -0.0009
     31  CE1      103.7610   -5.0610   82.5350 C.ar   33  TYR33       0.0417
     32  CE2      104.4550   -3.3260   84.0560 C.ar   33  TYR33       0.0417
     33  CZ       104.7630   -4.2790   83.1020 C.ar   33  TYR33       0.1957
     34  OH       106.0730   -4.4480   82.7300 O.3    33  TYR33      -0.2866
     35  N         99.0750   -4.3190   81.7580 N.am   34  GLU34      -0.1979
     36  CA        98.9600   -4.9730   80.4550 C.3    34  GLU34       0.1602
     37  C         98.4860   -4.0570   79.3250 C.2    34  GLU34       0.2287
     38  O         98.4930   -4.4520   78.1550 O.2    34  GLU34      -0.2864
     39  CB        98.0490   -6.2120   80.5590 C.3    34  GLU34       0.0415
     40  CG        96.8690   -6.1040   81.5590 C.3    34  GLU34       0.1163
     41  CD        97.3000   -6.2020   83.0320 C.2    34  GLU34       0.3649
     42  OE1       98.2590   -6.9470   83.3410 O.co2  34  GLU34      -0.2457
     43  OE2       96.7030   -5.5150   83.8900 O.co2  34  GLU34      -0.2457
     44  N         99.3110   -0.4160   79.6980 N.3    36  TRP36      -0.1227
     45  CA       100.0650    0.8340   79.8600 C.3    36  TRP36       0.1737
     46  C        100.9320    1.2720   78.6680 C.2    36  TRP36       0.2595
     47  O        100.9020    2.4470   78.2910 O.2    36  TRP36      -0.2718
     48  CB       100.9070    0.8340   81.1470 C.3    36  TRP36       0.0564
     49  CG       101.6100    2.1600   81.4000 C.ar   36  TRP36       0.0003
     50  CD1      102.8950    2.3440   81.8440 C.ar   36  TRP36       0.0946
     51  CD2      101.0700    3.4770   81.1900 C.ar   36  TRP36       0.0152
     52  NE1      103.1820    3.6870   81.9190 N.ar   36  TRP36      -0.2442
     53  CE2      102.0830    4.4020   81.5230 C.ar   36  TRP36       0.0810
     54  CE3       99.8280    3.9590   80.7420 C.ar   36  TRP36       0.0012
     55  CZ2      101.8920    5.7900   81.4230 C.ar   36  TRP36       0.0191
     56  CZ3       99.6400    5.3340   80.6390 C.ar   36  TRP36       0.0001
     57  CH2      100.6680    6.2340   80.9780 C.ar   36  TRP36       0.0015
     58  N        101.7010    0.3520   78.0830 N.am   37  PHE37      -0.1976
     59  CA       102.5650    0.6830   76.9400 C.3    37  PHE37       0.1639
     60  C        101.7380    1.3030   75.8060 C.2    37  PHE37       0.2290
     61  O        102.1580    2.2760   75.1710 O.2    37  PHE37      -0.2864
     62  CB       103.2880   -0.5780   76.4380 C.3    37  PHE37       0.0560
     63  CG       104.5650   -0.2960   75.6840 C.ar   37  PHE37      -0.0200
     64  CD1      104.5410   -0.0080   74.3210 C.ar   37  PHE37      -0.0042
     65  CD2      105.7920   -0.3230   76.3380 C.ar   37  PHE37      -0.0042
     66  CE1      105.7200    0.2470   73.6210 C.ar   37  PHE37      -0.0003
     67  CE2      106.9730   -0.0700   75.6480 C.ar   37  PHE37      -0.0003
     68  CZ       106.9380    0.2160   74.2860 C.ar   37  PHE37      -0.0000
     69  N        100.1230    4.8230   77.1170 N.3    40  GLN40      -0.1231
     70  CA       101.2170    5.7890   77.1800 C.3    40  GLN40       0.1698
     71  C        101.5570    6.2740   75.7710 C.2    40  GLN40       0.2592
     72  O        101.7090    7.4750   75.5550 O.2    40  GLN40      -0.2718
     73  CB       102.4690    5.2020   77.8520 C.3    40  GLN40       0.0381
     74  CG       103.5510    6.2590   78.1150 C.3    40  GLN40       0.0905
     75  CD       104.8360    5.7080   78.7060 C.2    40  GLN40       0.2608
     76  OE1      104.9120    4.5420   79.0620 O.2    40  GLN40      -0.2717
     77  NE2      105.8500    6.5550   78.8210 N.am   40  GLN40      -0.0878
     78  N        101.6260    5.3500   74.8090 N.am   41  GLN41      -0.1979
     79  CA       101.9380    5.6970   73.4160 C.3    41  GLN41       0.1601
     80  C        100.8860    6.5490   72.6760 C.2    41  GLN41       0.2287
     81  O        101.2510    7.4240   71.8750 O.2    41  GLN41      -0.2864
     82  CB       102.2830    4.4460   72.6030 C.3    41  GLN41       0.0394
     83  CG       103.6160    3.8410   72.9740 C.3    41  GLN41       0.0908
     84  CD       104.3110    3.2470   71.7820 C.2    41  GLN41       0.2608
     85  OE1      105.1110    3.9130   71.1260 O.2    41  GLN41      -0.2717
     86  NE2      103.9810    2.0050   71.4610 N.am   41  GLN41      -0.0878
     87  N        101.1080   10.1130   73.9290 N.3    44  GLN44      -0.1245
     88  CA       102.3180   10.7220   73.3670 C.3    44  GLN44       0.1566
     89  C        102.1330   11.1940   71.9140 C.2    44  GLN44       0.2260
     90  O        102.4860   12.3340   71.5720 O.2    44  GLN44      -0.2867
     91  CB       103.4900    9.7260   73.4330 C.3    44  GLN44       0.0367
     92  CG       103.9150    9.3130   74.8400 C.3    44  GLN44       0.0905
     93  CD       105.0540    8.2960   74.8560 C.2    44  GLN44       0.2608
     94  OE1      105.9040    8.3230   75.7460 O.2    44  GLN44      -0.2717
     95  NE2      105.0740    7.3980   73.8750 N.am   44  GLN44      -0.0878
     96  N        109.1970   -5.1100   91.3190 N.3    61  GLY61      -0.1210
     97  CA       110.1660   -6.1890   91.2500 C.3    61  GLY61       0.1956
     98  C        109.6070   -7.5810   91.5090 C.2    61  GLY61       0.2611
     99  O        110.3630   -8.5020   91.8370 O.2    61  GLY61      -0.2717
    100  N        108.2990   -7.7580   91.3330 N.am   62  ILE62      -0.1979
    101  CA       107.6620   -9.0630   91.5470 C.3    62  ILE62       0.1595
    102  C        108.0330  -10.0690   90.4360 C.2    62  ILE62       0.2287
    103  O        108.0360   -9.7270   89.2410 O.2    62  ILE62      -0.2864
    104  CB       106.0970   -8.9400   91.6290 C.3    62  ILE62       0.0276
    105  CG1      105.6810   -8.0060   92.7740 C.3    62  ILE62       0.0022
    106  CG2      105.4620  -10.3200   91.8330 C.3    62  ILE62       0.0022
    107  CD1      104.1670   -7.7480   92.8470 C.3    62  ILE62       0.0001
@<TRIPOS>BOND
     1    85    84    2
     2    86    84   am
     3    90    89    2
     4    84    83    1
     5    81    80    2
     6    89    88    1
     7    82    83    1
     8    82    79    1
     9    80    79    1
    10    88    91    1
    11    88    87    1
    12    79    78    1
    13    91    92    1
    14    66    68   ar
    15    66    64   ar
    16    95    93   am
    17    68    67   ar
    18    64    63   ar
    19    78    71   am
    20    92    93    1
    21    93    94    2
    22    61    60    2
    23    72    71    2
    24    67    65   ar
    25    63    65   ar
    26    63    62    1
    27    71    70    1
    28    60    59    1
    29    62    59    1
    30    59    58    1
    31    69    70    1
    32    70    73    1
    33    73    74    1
    34    58    46   am
    35    74    75    1
    36    38    37    2
    37    47    46    2
    38    46    45    1
    39    75    77   am
    40    75    76    2
    41    37    36    1
    42    44    45    1
    43    45    48    1
    44    36    39    1
    45    36    35    1
    46    39    40    1
    47    56    54   ar
    48    56    57   ar
    49    54    51   ar
    50    57    55   ar
    51    48    49    1
    52    26    25    2
    53    51    49   ar
    54    51    53   ar
    55    49    50   ar
    56    55    53   ar
    57    53    52   ar
    58    40    41    1
    59    35    25   am
    60    50    52   ar
    61    25    24    1
    62    31    29   ar
    63    31    33   ar
    64    34    33    1
    65    29    28   ar
    66    41    42   ar
    67    41    43   ar
    68    33    32   ar
    69    24    23    1
    70    24    27    1
    71    28    27    1
    72    28    30   ar
    73    32    30   ar
    74    21    19   ar
    75    21    22   ar
    76    19    17   ar
    77    22    20   ar
    78    10     9    1
    79    17    16    1
    80    17    18   ar
    81    16    13    1
    82    20    18   ar
    83     9    11    1
    84     9     8    2
    85     4     3    2
    86    15    14    2
    87    13    12    1
    88    13    14    1
    89     6     7    1
    90     6     5    1
    91     7     8    1
    92     3     2    1
    93     1     2    1
    94     2     5    1
    95   103   102    2
    96   102   101    1
    97    97    96    1
    98    97    98    1
    99   100    98   am
   100   100   101    1
   101    98    99    2
   102   101   104    1
   103   104   106    1
   104   104   105    1
   105   105   107    1
