@<TRIPOS>MOLECULE
tmp/1b38A00.pdb
 196 186 0 0 0
SMALL
GASTEIGER

@<TRIPOS>ATOM
      1  N         -0.4210   22.9510    3.1880 N.3    10  ILE10      -0.1231
      2  CA         0.6680   23.2420    4.1190 C.3    10  ILE10       0.1692
      3  C          0.4760   22.2970    5.3030 C.2    10  ILE10       0.2593
      4  O          1.4910   21.8080    5.8090 O.2    10  ILE10      -0.2718
      5  CB         0.7250   24.6680    4.6790 C.3    10  ILE10       0.0266
      6  CG1        0.8900   25.7040    3.5920 C.3    10  ILE10       0.0019
      7  CG2        1.8280   24.8210    5.7470 C.3    10  ILE10       0.0020
      8  CD1        0.6520   27.1450    4.0080 C.3    10  ILE10       0.0001
      9  N         -0.7510   22.1700    5.7990 N.am   11  GLY11      -0.1942
     10  CA        -0.9250   21.2710    6.9580 C.3    11  GLY11       0.2014
     11  C         -2.3850   21.3470    7.3610 C.2    11  GLY11       0.2639
     12  O         -3.1800   21.9560    6.6380 O.2    11  GLY11      -0.2714
     13  N         -2.7170   20.7950    8.5060 N.am   12  GLU12      -0.1963
     14  CA        -4.0850   20.7910    8.9670 C.3    12  GLU12       0.1733
     15  C         -3.9950   20.9070   10.4720 C.2    12  GLU12       0.2617
     16  O         -2.9770   20.4670   11.0160 O.2    12  GLU12      -0.2715
     17  CB        -4.8090   19.5380    8.4980 C.3    12  GLU12       0.0429
     18  CG        -4.1180   18.2820    9.0030 C.3    12  GLU12       0.1163
     19  CD        -4.2210   17.0680    8.0830 C.2    12  GLU12       0.3649
     20  OE1       -4.6460   17.1860    6.8980 O.co2  12  GLU12      -0.2457
     21  OE2       -3.8510   15.9810    8.6120 O.co2  12  GLU12      -0.2457
     22  N         -5.0080   21.5100   11.0780 N.am   13  GLY13      -0.1940
     23  CA        -4.8910   21.6670   12.5190 C.3    13  GLY13       0.2014
     24  C         -6.1730   21.4410   13.2790 C.2    13  GLY13       0.2640
     25  O         -7.0140   20.6130   12.9590 O.2    13  GLY13      -0.2714
     26  N         -6.3040   22.2890   14.3030 N.am   14  THR14      -0.1936
     27  CA        -7.4320   22.2080   15.1970 C.3    14  THR14       0.2028
     28  C         -8.7390   22.4250   14.4490 C.2    14  THR14       0.2642
     29  O         -9.6380   21.6080   14.5390 O.2    14  THR14      -0.2714
     30  CB        -7.3270   23.2370   16.3540 C.3    14  THR14       0.1808
     31  OG1       -6.1020   23.0070   17.0690 O.3    14  THR14      -0.2208
     32  CG2       -8.4910   23.0780   17.3330 C.3    14  THR14       0.0379
     33  N         -8.7930   23.5330   13.7180 N.am   15  TYR15      -0.1959
     34  CA       -10.0150   23.9500   13.0660 C.3    15  TYR15       0.1771
     35  C        -10.1480   23.6180   11.6050 C.2    15  TYR15       0.2620
     36  O        -11.3100   23.6710   11.1720 O.2    15  TYR15      -0.2715
     37  CB       -10.1880   25.4730   13.2440 C.3    15  TYR15       0.0574
     38  CG       -10.2960   25.8440   14.7090 C.ar   15  TYR15      -0.0198
     39  CD1      -11.3830   25.4450   15.4920 C.ar   15  TYR15      -0.0009
     40  CD2       -9.2860   26.5630   15.3100 C.ar   15  TYR15      -0.0009
     41  CE1      -11.4650   25.7950   16.8250 C.ar   15  TYR15       0.0417
     42  CE2       -9.3340   26.9010   16.6450 C.ar   15  TYR15       0.0417
     43  CZ       -10.4300   26.5260   17.3870 C.ar   15  TYR15       0.1957
     44  OH       -10.4670   26.9070   18.7310 O.3    15  TYR15      -0.2866
     45  N         -9.0670   23.3010   10.8970 N.am   16  GLY16      -0.1954
     46  CA        -9.2590   22.9710    9.4980 C.3    16  GLY16       0.1869
     47  C         -7.9430   22.8760    8.7540 C.2    16  GLY16       0.2309
     48  O         -6.8920   22.8210    9.3600 O.2    16  GLY16      -0.2863
     49  N         -4.8990   24.0110    5.9820 N.3    18  VAL18      -0.1245
     50  CA        -4.2970   25.2770    5.5400 C.3    18  VAL18       0.1561
     51  C         -3.5960   25.0000    4.2120 C.2    18  VAL18       0.2260
     52  O         -2.7760   24.0660    4.0640 O.2    18  VAL18      -0.2867
     53  CB        -3.2120   25.7870    6.4890 C.3    18  VAL18       0.0252
     54  CG1       -2.5130   27.0480    5.9180 C.3    18  VAL18       0.0019
     55  CG2       -3.6430   26.0720    7.9170 C.3    18  VAL18       0.0019
     56  N         -1.9430   32.3330    2.7230 N.3    31  ALA31      -0.1245
     57  CA        -2.2110   31.0550    3.3830 C.3    31  ALA31       0.1562
     58  C         -3.7260   31.0640    3.6090 C.2    31  ALA31       0.2260
     59  O         -4.3540   31.9220    4.2060 O.2    31  ALA31      -0.2867
     60  CB        -1.3880   31.0360    4.6780 C.3    31  ALA31       0.0290
     61  N         -7.0420   29.3200    5.1790 N.3    33  LYS33      -0.1245
     62  CA        -7.4580   28.2610    6.0990 C.3    33  LYS33       0.1561
     63  C         -8.9390   27.9870    5.9220 C.2    33  LYS33       0.2260
     64  O         -9.7700   28.8760    6.0690 O.2    33  LYS33      -0.2867
     65  CB        -7.1060   28.6050    7.5450 C.3    33  LYS33       0.0271
     66  CG        -7.6040   27.5380    8.5160 C.3    33  LYS33       0.0035
     67  CD        -7.1810   27.7770    9.9520 C.3    33  LYS33       0.0206
     68  CE        -5.6690   27.6350   10.1320 C.3    33  LYS33       0.1093
     69  NZ        -5.3880   27.8500   11.5810 N.3    33  LYS33      -0.1314
     70  N          0.5240   37.6420   12.6240 N.3    56  VAL56      -0.1245
     71  CA         0.3120   37.2470   11.2150 C.3    56  VAL56       0.1561
     72  C         -0.9290   37.9810   10.6830 C.2    56  VAL56       0.2260
     73  O         -1.9590   37.9860   11.3580 O.2    56  VAL56      -0.2867
     74  CB         0.1010   35.7380   11.0120 C.3    56  VAL56       0.0252
     75  CG1       -0.2250   35.3640    9.5620 C.3    56  VAL56       0.0019
     76  CG2        1.3620   34.9590   11.3440 C.3    56  VAL56       0.0019
     77  N         -4.7880   34.5610    5.2360 N.3    72  PHE72      -0.1227
     78  CA        -3.7140   35.0960    6.0190 C.3    72  PHE72       0.1736
     79  C         -2.4900   35.4460    5.1680 C.2    72  PHE72       0.2595
     80  O         -2.2670   34.7590    4.2000 O.2    72  PHE72      -0.2718
     81  CB        -3.1390   34.1460    7.1190 C.3    72  PHE72       0.0547
     82  CG        -4.0690   33.9060    8.2820 C.ar   72  PHE72      -0.0202
     83  CD1       -4.2560   34.8770    9.2620 C.ar   72  PHE72      -0.0042
     84  CD2       -4.7220   32.7090    8.4350 C.ar   72  PHE72      -0.0042
     85  CE1       -5.1080   34.6570   10.3050 C.ar   72  PHE72      -0.0003
     86  CE2       -5.6130   32.4390    9.4540 C.ar   72  PHE72      -0.0003
     87  CZ        -5.7910   33.4500   10.4150 C.ar   72  PHE72      -0.0000
     88  N         -1.6880   36.3550    5.7430 N.am   73  GLU73      -0.1965
     89  CA        -0.3570   36.6050    5.1870 C.3    73  GLU73       0.1733
     90  C          0.4000   35.2910    5.2230 C.2    73  GLU73       0.2616
     91  O          0.2360   34.5180    6.1950 O.2    73  GLU73      -0.2715
     92  CB         0.2150   37.5950    6.2670 C.3    73  GLU73       0.0429
     93  CG         1.7060   37.6740    6.2520 C.3    73  GLU73       0.1163
     94  CD         2.3030   38.5790    7.3250 C.2    73  GLU73       0.3649
     95  OE1        1.7880   38.9750    8.3620 O.co2  73  GLU73      -0.2457
     96  OE2        3.4550   38.9210    7.0800 O.co2  73  GLU73      -0.2457
     97  N          1.2180   34.9030    4.3140 N.am   74  PHE74      -0.1960
     98  CA         1.9180   33.6350    4.2310 C.3    74  PHE74       0.1771
     99  C          3.3410   33.7750    4.7420 C.2    74  PHE74       0.2619
    100  O          3.9780   34.7550    4.3170 O.2    74  PHE74      -0.2715
    101  CB         2.0400   33.2620    2.7560 C.3    74  PHE74       0.0574
    102  CG         2.8730   32.0240    2.5940 C.ar   74  PHE74      -0.0200
    103  CD1        2.2990   30.7510    2.7510 C.ar   74  PHE74      -0.0042
    104  CD2        4.2020   32.1250    2.2260 C.ar   74  PHE74      -0.0042
    105  CE1        3.0600   29.6280    2.6010 C.ar   74  PHE74      -0.0003
    106  CE2        4.9640   30.9820    2.0880 C.ar   74  PHE74      -0.0003
    107  CZ         4.3810   29.7400    2.2510 C.ar   74  PHE74      -0.0000
    108  N          3.7900   32.8260    5.5720 N.am   75  LEU75      -0.1977
    109  CA         5.1940   33.0130    6.0080 C.3    75  LEU75       0.1596
    110  C          5.7700   31.6480    5.6060 C.2    75  LEU75       0.2287
    111  O          5.0030   30.6800    5.6590 O.2    75  LEU75      -0.2864
    112  CB         5.3960   33.3410    7.4750 C.3    75  LEU75       0.0297
    113  CG         5.2260   34.8300    7.7900 C.3    75  LEU75       0.0022
    114  CD1        3.8070   35.0340    8.3200 C.3    75  LEU75       0.0001
    115  CD2        6.2210   35.3320    8.8440 C.3    75  LEU75       0.0001
    116  N          7.9260   29.5310    7.1290 N.3    77  GLN77      -0.1231
    117  CA         8.2340   28.4290    8.0180 C.3    77  GLN77       0.1698
    118  C          7.6650   28.7100    9.3920 C.2    77  GLN77       0.2592
    119  O          7.5810   29.8600    9.7920 O.2    77  GLN77      -0.2718
    120  CB         9.7630   28.2840    8.1730 C.3    77  GLN77       0.0381
    121  CG         9.9810   26.9410    8.8800 C.3    77  GLN77       0.0905
    122  CD        11.3770   26.4230    8.8540 C.2    77  GLN77       0.2608
    123  OE1       11.4870   25.3220    8.2840 O.2    77  GLN77      -0.2717
    124  NE2       12.4170   27.0370    9.3510 N.am   77  GLN77      -0.0878
    125  N          7.4150   27.6500   10.1280 N.am   78  ASP78      -0.1974
    126  CA         6.9140   27.7430   11.4830 C.3    78  ASP78       0.1709
    127  C          8.1130   27.3810   12.3680 C.2    78  ASP78       0.2293
    128  O          9.1070   26.8180   11.8650 O.2    78  ASP78      -0.2864
    129  CB         5.7070   26.9070   11.7980 C.3    78  ASP78       0.1436
    130  CG         5.9500   25.4090   11.8380 C.2    78  ASP78       0.3671
    131  OD1        6.8830   24.8770   12.4920 O.co2  78  ASP78      -0.2456
    132  OD2        5.1110   24.7830   11.1580 O.co2  78  ASP78      -0.2456
    133  N          9.1960   23.4590   12.8290 N.3    81  LYS81      -0.1245
    134  CA        10.1140   23.0850   11.7560 C.3    81  LYS81       0.1561
    135  C         11.4520   23.7390   11.9550 C.2    81  LYS81       0.2260
    136  O         12.4710   23.0880   11.7070 O.2    81  LYS81      -0.2867
    137  CB         9.5120   23.4950   10.3890 C.3    81  LYS81       0.0271
    138  CG         8.4360   22.5180    9.9350 C.3    81  LYS81       0.0035
    139  CD         7.9540   22.8180    8.5040 C.3    81  LYS81       0.0206
    140  CE         6.4460   22.4630    8.4360 C.3    81  LYS81       0.1093
    141  NZ         5.8850   22.9390    7.1090 N.3    81  LYS81      -0.1314
    142  N         -3.8270   29.6490   22.7710 N.3   119  ASP119     -0.1239
    143  CA        -3.2420   28.4060   22.2730 C.3   119  ASP119      0.1674
    144  C         -1.8810   28.5980   21.6350 C.2   119  ASP119      0.2266
    145  O         -1.6500   28.2230   20.4840 O.2   119  ASP119     -0.2867
    146  CB        -4.2010   27.7330   21.2450 C.3   119  ASP119      0.1410
    147  CG        -3.8030   26.2540   21.2580 C.2   119  ASP119      0.3668
    148  OD1       -3.0330   25.8430   22.1870 O.co2 119  ASP119     -0.2456
    149  OD2       -4.2200   25.6030   20.2730 O.co2 119  ASP119     -0.2456
    150  N          1.8000   27.8550   20.6940 N.3   121  LYS121     -0.1245
    151  CA         2.6120   26.6830   20.4960 C.3   121  LYS121      0.1561
    152  C          3.5330   26.9110   19.2860 C.2   121  LYS121      0.2260
    153  O          3.2910   27.8540   18.5220 O.2   121  LYS121     -0.2867
    154  CB         1.7880   25.4380   20.2310 C.3   121  LYS121      0.0271
    155  CG         0.8730   25.5340   18.9940 C.3   121  LYS121      0.0035
    156  CD        -0.4290   24.8320   19.3430 C.3   121  LYS121      0.0206
    157  CE        -1.2520   24.3470   18.1970 C.3   121  LYS121      0.1093
    158  NZ        -2.5820   23.8470   18.6820 N.3   121  LYS121     -0.1314
    159  N          3.9320   25.7260   16.2890 N.3   123  GLN123     -0.1231
    160  CA         3.3000   25.6930   15.0020 C.3   123  GLN123      0.1698
    161  C          2.5850   27.0250   14.7350 C.2   123  GLN123      0.2592
    162  O          2.2170   27.3010   13.6180 O.2   123  GLN123     -0.2718
    163  CB         2.3040   24.5340   14.8020 C.3   123  GLN123      0.0381
    164  CG         2.8140   23.1790   15.2940 C.3   123  GLN123      0.0905
    165  CD         2.6880   22.9680   16.8150 C.2   123  GLN123      0.2608
    166  OE1        3.3910   23.4380   17.7040 O.2   123  GLN123     -0.2717
    167  NE2        1.6660   22.1750   17.2210 N.am  123  GLN123     -0.0878
    168  N          2.2740   27.7920   15.7580 N.am  124  ASN124     -0.1974
    169  CA         1.5680   29.0420   15.7100 C.3   124  ASN124      0.1688
    170  C          2.5530   30.2180   15.7520 C.2   124  ASN124      0.2292
    171  O          2.1630   31.2890   16.1220 O.2   124  ASN124     -0.2864
    172  CB         0.5880   29.0890   16.8870 C.3   124  ASN124      0.1181
    173  CG        -0.7360   28.4250   16.5200 C.2   124  ASN124      0.2629
    174  OD1       -0.9020   28.1820   15.3290 O.2   124  ASN124     -0.2716
    175  ND2       -1.6570   28.1850   17.4430 N.am  124  ASN124     -0.0877
    176  N          5.2940   31.9480   13.3870 N.3   126  LEU126     -0.1245
    177  CA         5.7980   31.8080   12.0140 C.3   126  LEU126      0.1561
    178  C          6.9720   32.7440   11.7760 C.2   126  LEU126      0.2260
    179  O          6.9350   33.8130   12.3870 O.2   126  LEU126     -0.2867
    180  CB         4.6410   32.0960   11.0230 C.3   126  LEU126      0.0270
    181  CG         3.3760   31.1910   11.2160 C.3   126  LEU126      0.0019
    182  CD1        2.3740   31.5480   10.1580 C.3   126  LEU126      0.0001
    183  CD2        3.7370   29.7280   11.0760 C.3   126  LEU126      0.0001
    184  N          0.5790   33.2980   14.9610 N.3   136  ALA136     -0.1231
    185  CA        -0.4660   32.9240   14.0140 C.3   136  ALA136      0.1694
    186  C         -1.7460   32.5150   14.7250 C.2   136  ALA136      0.2592
    187  O         -1.6570   32.0100   15.8730 O.2   136  ALA136     -0.2718
    188  CB         0.0330   31.6910   13.2230 C.3   136  ALA136      0.0304
    189  N         -2.9120   32.5850   14.1170 N.am  137  ASP137     -0.1974
    190  CA        -4.1770   32.1090   14.7850 C.3   137  ASP137      0.1709
    191  C         -4.5220   32.8210   16.0480 C.2   137  ASP137      0.2293
    192  O         -5.2510   32.2760   16.8870 O.2   137  ASP137     -0.2864
    193  CB        -4.1820   30.5700   15.0270 C.3   137  ASP137      0.1436
    194  CG        -4.0120   29.9210   13.6360 C.2   137  ASP137      0.3671
    195  OD1       -4.4910   30.4930   12.6300 O.co2 137  ASP137     -0.2456
    196  OD2       -3.3860   28.8560   13.4480 O.co2 137  ASP137     -0.2456
@<TRIPOS>BOND
     1   106   104   ar
     2   106   107   ar
     3   104   102   ar
     4   107   105   ar
     5   102   103   ar
     6   102   101    1
     7   105   103   ar
     8    56    57    1
     9   101    98    1
    10     1     2    1
    11    57    58    1
    12    57    60    1
    13     6     8    1
    14     6     5    1
    15    58    59    2
    16    52    51    2
    17     2     5    1
    18     2     3    1
    19    80    79    2
    20    51    50    1
    21    98    97    1
    22    98    99    1
    23    97    90   am
    24   100    99    2
    25     5     7    1
    26    99   108   am
    27    79    88   am
    28    79    78    1
    29    61    62    1
    30    89    90    1
    31    89    88    1
    32    89    92    1
    33    90    91    2
    34    77    78    1
    35     3     9   am
    36     3     4    2
    37    50    49    1
    38    50    53    1
    39   108   109    1
    40   110   111    2
    41   110   109    1
    42     9    10    1
    43    54    53    1
    44    63    64    2
    45    63    62    1
    46   109   112    1
    47    78    81    1
    48    62    65    1
    49    93    92    1
    50    93    94    1
    51    53    55    1
    52    12    11    2
    53    20    19   ar
    54    10    11    1
    55    96    94   ar
    56   141   140    1
    57    81    82    1
    58   116   117    1
    59    94    95   ar
    60    11    13   am
    61   112   113    1
    62    65    66    1
    63   113   114    1
    64   113   115    1
    65   117   120    1
    66   117   118    1
    67    19    21   ar
    68    19    18    1
    69   120   121    1
    70    82    84   ar
    71    82    83   ar
    72   123   122    2
    73    84    86   ar
    74   140   139    1
    75    17    14    1
    76    17    18    1
    77   139   138    1
    78    13    14    1
    79    66    67    1
    80    47    48    2
    81    47    46    1
    82   122   121    1
    83   122   124   am
    84    14    15    1
    85    83    85   ar
    86   118   119    2
    87   118   125   am
    88    86    87   ar
    89    46    45    1
    90    75    74    1
    91   138   137    1
    92    67    68    1
    93   125   126    1
    94    68    69    1
    95   182   181    1
    96    85    87   ar
    97   137   134    1
    98    15    16    2
    99    15    22   am
   100    72    71    1
   101    72    73    2
   102    45    35   am
   103    74    71    1
   104    74    76    1
   105   180   181    1
   106   180   177    1
   107   183   181    1
   108    22    23    1
   109   132   130   ar
   110    36    35    2
   111    71    70    1
   112   126   129    1
   113   126   127    1
   114    35    34    1
   115   136   135    2
   116   134   135    1
   117   134   133    1
   118   178   177    1
   119   178   179    2
   120   129   130    1
   121   130   131   ar
   122   128   127    2
   123   177   176    1
   124    23    24    1
   125   195   194   ar
   126    25    24    2
   127    34    37    1
   128    34    33    1
   129   188   185    1
   130    37    38    1
   131    24    26   am
   132   196   194   ar
   133   162   161    2
   134   194   193    1
   135    33    28   am
   136   185   186    1
   137   185   184    1
   138   189   186   am
   139   189   190    1
   140    26    27    1
   141    28    29    2
   142    28    27    1
   143    38    40   ar
   144    38    39   ar
   145   186   187    2
   146   161   160    1
   147   161   168   am
   148   190   193    1
   149   190   191    1
   150   163   160    1
   151   163   164    1
   152   160   159    1
   153    27    30    1
   154   164   165    1
   155    40    42   ar
   156   174   173    2
   157    39    41   ar
   158   169   170    1
   159   169   168    1
   160   169   172    1
   161   170   171    2
   162   191   192    2
   163    30    31    1
   164    30    32    1
   165   173   172    1
   166   173   175   am
   167    42    43   ar
   168   165   167   am
   169   165   166    2
   170    41    43   ar
   171    43    44    1
   172   157   158    1
   173   157   156    1
   174   153   152    2
   175   155   156    1
   176   155   154    1
   177   152   151    1
   178   154   151    1
   179   149   147   ar
   180   145   144    2
   181   151   150    1
   182   146   147    1
   183   146   143    1
   184   147   148   ar
   185   144   143    1
   186   143   142    1
