@<TRIPOS>MOLECULE
tmp/1b3dB00.pdb
 155 156 0 0 0
SMALL
GASTEIGER

@<TRIPOS>ATOM
      1  N        -29.1060   31.5800   -3.3290 N.3    80  ASN80      -0.1225
      2  CA       -28.1130   30.5300   -3.5590 C.3    80  ASN80       0.1785
      3  C        -26.6890   30.9360   -3.1470 C.2    80  ASN80       0.2597
      4  O        -26.4760   31.2710   -1.9780 O.2    80  ASN80      -0.2718
      5  CB       -28.2090   30.0110   -4.9960 C.3    80  ASN80       0.1169
      6  CG       -29.5720   29.3850   -5.2910 C.2    80  ASN80       0.2627
      7  OD1      -29.9780   28.4160   -4.6470 O.2    80  ASN80      -0.2716
      8  ND2      -30.3070   29.9740   -6.2230 N.am   80  ASN80      -0.0877
      9  N        -25.7310   30.9300   -4.0740 N.am   81  VAL81      -0.1966
     10  CA       -24.3470   31.3050   -3.7530 C.3    81  VAL81       0.1727
     11  C        -24.2310   32.7760   -3.3980 C.2    81  VAL81       0.2616
     12  O        -24.5100   33.6460   -4.2170 O.2    81  VAL81      -0.2715
     13  CB       -23.4050   31.0260   -4.9260 C.3    81  VAL81       0.0290
     14  CG1      -21.9850   31.4610   -4.5830 C.3    81  VAL81       0.0023
     15  CG2      -23.4270   29.5690   -5.2650 C.3    81  VAL81       0.0023
     16  N        -23.8430   33.0490   -2.1600 N.am   82  LEU82      -0.1963
     17  CA       -23.6930   34.4100   -1.6520 C.3    82  LEU82       0.1728
     18  C        -22.2800   34.9710   -1.8610 C.2    82  LEU82       0.2616
     19  O        -22.0820   36.1810   -1.9010 O.2    82  LEU82      -0.2715
     20  CB       -24.0050   34.4180   -0.1570 C.3    82  LEU82       0.0311
     21  CG       -25.2710   33.6800    0.2900 C.3    82  LEU82       0.0022
     22  CD1      -25.2370   33.5270    1.8050 C.3    82  LEU82       0.0001
     23  CD2      -26.5220   34.4110   -0.1500 C.3    82  LEU82       0.0001
     24  N        -21.2940   34.0870   -1.9340 N.am   83  ALA83      -0.1963
     25  CA       -19.9160   34.5210   -2.1230 C.3    83  ALA83       0.1728
     26  C        -18.9630   33.3660   -2.4490 C.2    83  ALA83       0.2616
     27  O        -19.3580   32.2110   -2.4600 O.2    83  ALA83      -0.2715
     28  CB       -19.4450   35.2490   -0.8690 C.3    83  ALA83       0.0334
     29  N        -17.7450   33.6950   -2.8600 N.am   84  HIS84      -0.1959
     30  CA       -16.7480   32.6620   -3.1280 C.3    84  HIS84       0.1787
     31  C        -15.3270   33.1930   -2.9930 C.2    84  HIS84       0.2620
     32  O        -15.0380   34.3570   -3.3080 O.2    84  HIS84      -0.2715
     33  CB       -16.9960   31.8800   -4.4400 C.3    84  HIS84       0.0785
     34  CG       -16.8940   32.6970   -5.6860 C.ar   84  HIS84       0.0821
     35  ND1      -17.6210   32.3980   -6.8180 N.ar   84  HIS84      -0.2267
     36  CD2      -16.1200   33.7670   -6.0110 C.ar   84  HIS84       0.1154
     37  CE1      -17.3010   33.2370   -7.7820 C.ar   84  HIS84       0.1986
     38  NE2      -16.3960   34.0770   -7.3160 N.ar   84  HIS84      -0.2212
     39  N        -14.4590   32.3450   -2.4580 N.am   85  ALA85      -0.1977
     40  CA       -13.0680   32.6970   -2.2170 C.3    85  ALA85       0.1597
     41  C        -12.1580   31.5510   -2.6160 C.2    85  ALA85       0.2287
     42  O        -12.5390   30.3900   -2.5650 O.2    85  ALA85      -0.2864
     43  CB       -12.8560   33.0670   -0.7480 C.3    85  ALA85       0.0319
     44  N        -20.4260   37.6910    8.7490 N.3   115  LEU115     -0.1231
     45  CA       -20.4970   36.2390    8.8530 C.3   115  LEU115      0.1693
     46  C        -19.9120   35.5650    7.6360 C.2   115  LEU115      0.2591
     47  O        -19.0490   34.7050    7.7530 O.2   115  LEU115     -0.2718
     48  CB       -21.9360   35.7550    9.0460 C.3   115  LEU115      0.0284
     49  CG       -22.6300   36.0550   10.3750 C.3   115  LEU115      0.0019
     50  CD1      -24.0330   35.4330   10.3630 C.3   115  LEU115      0.0001
     51  CD2      -21.7710   35.5100   11.5280 C.3   115  LEU115      0.0001
     52  N        -20.3830   35.9560    6.4610 N.am  116  VAL116     -0.1980
     53  CA       -19.9010   35.3500    5.2170 C.3   116  VAL116      0.1595
     54  C        -18.4290   35.6670    4.9390 C.2   116  VAL116      0.2287
     55  O        -17.6680   34.7960    4.5390 O.2   116  VAL116     -0.2864
     56  CB       -20.7900   35.7590    4.0350 C.3   116  VAL116      0.0276
     57  CG1      -22.2420   35.3610    4.3270 C.3   116  VAL116      0.0022
     58  CG2      -20.6900   37.2450    3.7990 C.3   116  VAL116      0.0022
     59  N        -16.3260   33.3610    6.8020 N.3   119  HIS119     -0.1226
     60  CA       -16.3400   32.0610    6.1230 C.3   119  HIS119      0.1752
     61  C        -15.4330   32.0850    4.8850 C.2   119  HIS119      0.2595
     62  O        -14.7520   31.1020    4.5900 O.2   119  HIS119     -0.2718
     63  CB       -17.7810   31.7040    5.7210 C.3   119  HIS119      0.0759
     64  CG       -17.9200   30.3910    4.9990 C.ar  119  HIS119      0.0818
     65  ND1      -18.3430   29.2400    5.6280 N.ar  119  HIS119     -0.2268
     66  CD2      -17.7730   30.0660    3.6900 C.ar  119  HIS119      0.1154
     67  CE1      -18.4540   28.2650    4.7460 C.ar  119  HIS119      0.1986
     68  NE2      -18.1110   28.7360    3.5630 N.ar  119  HIS119     -0.2212
     69  N        -15.4010   33.2140    4.1800 N.am  120  GLU120     -0.1979
     70  CA       -14.5630   33.3470    2.9900 C.3   120  GLU120      0.1602
     71  C        -13.0840   33.4890    3.3360 C.2   120  GLU120      0.2287
     72  O        -12.2250   32.8720    2.7100 O.2   120  GLU120     -0.2864
     73  CB       -15.0050   34.5350    2.1300 C.3   120  GLU120      0.0415
     74  CG       -16.4310   34.4540    1.6340 C.3   120  GLU120      0.1163
     75  CD       -16.7280   33.1280    0.9750 C.2   120  GLU120      0.3649
     76  OE1      -15.8710   32.6530    0.2010 O.co2 120  GLU120     -0.2457
     77  OE2      -17.8010   32.5480    1.2450 O.co2 120  GLU120     -0.2457
     78  N        -11.5040   30.3850    3.6540 N.3   123  HIS123     -0.1241
     79  CA       -11.1370   29.7730    2.3770 C.3   123  HIS123      0.1621
     80  C         -9.8400   30.3840    1.8570 C.2   123  HIS123      0.2264
     81  O         -8.9670   29.6760    1.3760 O.2   123  HIS123     -0.2867
     82  CB       -12.2430   29.9730    1.3360 C.3   123  HIS123      0.0745
     83  CG       -13.4400   29.0940    1.5360 C.ar  123  HIS123      0.0817
     84  ND1      -13.3310   27.7300    1.7300 N.ar  123  HIS123     -0.2268
     85  CD2      -14.7680   29.3590    1.4980 C.ar  123  HIS123      0.1154
     86  CE1      -14.5390   27.1990    1.7980 C.ar  123  HIS123      0.1986
     87  NE2      -15.4280   28.1630    1.6600 N.ar  123  HIS123     -0.2212
     88  N        -11.3210   24.3270    3.6190 N.3   128  PHE128     -0.1227
     89  CA       -12.3990   24.0060    2.6990 C.3   128  PHE128      0.1736
     90  C        -13.6300   23.7770    3.5760 C.2   128  PHE128      0.2595
     91  O        -13.5570   23.9290    4.7790 O.2   128  PHE128     -0.2718
     92  CB       -12.0720   22.7600    1.8670 C.3   128  PHE128      0.0547
     93  CG       -13.0710   22.4820    0.8010 C.ar  128  PHE128     -0.0202
     94  CD1      -13.5300   23.5100   -0.0280 C.ar  128  PHE128     -0.0042
     95  CD2      -13.5730   21.2020    0.6250 C.ar  128  PHE128     -0.0042
     96  CE1      -14.4800   23.2550   -1.0140 C.ar  128  PHE128     -0.0003
     97  CE2      -14.5250   20.9460   -0.3640 C.ar  128  PHE128     -0.0003
     98  CZ       -14.9750   21.9740   -1.1750 C.ar  128  PHE128     -0.0000
     99  N        -14.7620   23.4370    2.9840 N.am  129  HIS129     -0.1975
    100  CA       -15.9590   23.2020    3.7750 C.3   129  HIS129      0.1656
    101  C        -15.8310   22.0770    4.8000 C.2   129  HIS129      0.2291
    102  O        -15.2750   21.0170    4.5230 O.2   129  HIS129     -0.2864
    103  CB       -17.1570   22.9610    2.8610 C.3   129  HIS129      0.0771
    104  CG       -17.5720   24.1840    2.1050 C.ar  129  HIS129      0.0820
    105  ND1      -18.0250   24.1440    0.7980 N.ar  129  HIS129     -0.2267
    106  CD2      -17.5970   25.4870    2.4680 C.ar  129  HIS129      0.1154
    107  CE1      -18.3070   25.3730    0.3990 C.ar  129  HIS129      0.1986
    108  NE2      -18.0530   26.2010    1.3900 N.ar  129  HIS129     -0.2212
    109  N        -18.0380   27.2570   11.4490 N.3   136  LEU136     -0.1245
    110  CA       -18.2550   28.3940   10.5690 C.3   136  LEU136      0.1561
    111  C        -18.0080   27.9310    9.1280 C.2   136  LEU136      0.2260
    112  O        -18.6350   28.4220    8.1920 O.2   136  LEU136     -0.2867
    113  CB       -17.2870   29.5200   10.9230 C.3   136  LEU136      0.0270
    114  CG       -17.2180   30.6750    9.9220 C.3   136  LEU136      0.0019
    115  CD1      -18.5770   31.3360    9.7710 C.3   136  LEU136      0.0001
    116  CD2      -16.1710   31.6750   10.3910 C.3   136  LEU136      0.0001
    117  N        -18.8700   25.2640    7.7270 N.3   138  TYR138     -0.1228
    118  CA       -19.8860   24.3430    7.2110 C.3   138  TYR138      0.1721
    119  C        -20.5710   25.1570    6.1070 C.2   138  TYR138      0.2437
    120  O        -20.8880   26.3230    6.3020 O.2   138  TYR138     -0.2733
    121  CB       -20.8600   23.9080    8.3260 C.3   138  TYR138      0.0547
    122  CG       -21.8520   22.8430    7.9290 C.ar  138  TYR138     -0.0200
    123  CD1      -21.4600   21.5220    7.7520 C.ar  138  TYR138     -0.0009
    124  CD2      -23.1810   23.1650    7.7270 C.ar  138  TYR138     -0.0009
    125  CE1      -22.3820   20.5390    7.3800 C.ar  138  TYR138      0.0417
    126  CE2      -24.1030   22.2010    7.3560 C.ar  138  TYR138      0.0417
    127  CZ       -23.7020   20.8950    7.1820 C.ar  138  TYR138      0.1957
    128  OH       -24.6520   19.9700    6.8050 O.3   138  TYR138     -0.2866
    129  N        -20.7800   24.5540    4.9280 N.am  139  PRO139     -0.2718
    130  CA       -21.4030   25.1890    3.7550 C.3   139  PRO139      0.1535
    131  C        -22.8770   25.6000    3.8330 C.2   139  PRO139      0.2598
    132  O        -23.5580   25.6310    2.8170 O.2   139  PRO139     -0.2715
    133  CB       -21.1770   24.1430    2.6630 C.3   139  PRO139      0.0310
    134  CG       -21.3150   22.8570    3.4200 C.3   139  PRO139      0.0237
    135  CD       -20.4780   23.1370    4.6520 C.3   139  PRO139      0.0939
    136  N        -23.3820   25.9340    5.0080 N.am  140  LEU140     -0.1964
    137  CA       -24.7770   26.3250    5.0710 C.3   140  LEU140      0.1728
    138  C        -24.9840   27.6200    5.8410 C.2   140  LEU140      0.2616
    139  O        -24.8440   27.6460    7.0570 O.2   140  LEU140     -0.2715
    140  CB       -25.6230   25.1680    5.6300 C.3   140  LEU140      0.0311
    141  CG       -27.1010   24.9800    5.2420 C.3   140  LEU140      0.0022
    142  CD1      -28.0500   25.6210    6.2320 C.3   140  LEU140      0.0001
    143  CD2      -27.3360   25.5330    3.8420 C.3   140  LEU140      0.0001
    144  N        -25.2340   28.7110    5.1180 N.am  141  TYR141     -0.1974
    145  CA       -25.4870   30.0050    5.7600 C.3   141  TYR141      0.1639
    146  C        -26.9300   29.9300    6.2070 C.2   141  TYR141      0.2290
    147  O        -27.7960   29.5340    5.4240 O.2   141  TYR141     -0.2864
    148  CB       -25.3340   31.1730    4.7760 C.3   141  TYR141      0.0560
    149  CG       -25.6150   32.5240    5.3870 C.ar  141  TYR141     -0.0198
    150  CD1      -24.6590   33.1580    6.1570 C.ar  141  TYR141     -0.0009
    151  CD2      -26.8350   33.1620    5.2090 C.ar  141  TYR141     -0.0009
    152  CE1      -24.9000   34.3960    6.7370 C.ar  141  TYR141      0.0417
    153  CE2      -27.0870   34.4060    5.7950 C.ar  141  TYR141      0.0417
    154  CZ       -26.1090   35.0060    6.5530 C.ar  141  TYR141      0.1957
    155  OH       -26.3160   36.2330    7.1250 O.3   141  TYR141     -0.2866
@<TRIPOS>BOND
     1    37    38   ar
     2    37    35   ar
     3    38    36   ar
     4    35    34   ar
     5     8     6   am
     6    36    34   ar
     7    34    33    1
     8     6     5    1
     9     6     7    2
    10    15    13    1
    11     5     2    1
    12    13    14    1
    13    13    10    1
    14    33    30    1
    15    12    11    2
    16     9    10    1
    17     9     3   am
    18    10    11    1
    19     2     1    1
    20     2     3    1
    21    11    16   am
    22    32    31    2
    23     3     4    2
    24    30    31    1
    25    30    29    1
    26    31    39   am
    27    29    26   am
    28    41    42    2
    29    41    40    1
    30    27    26    2
    31    39    40    1
    32    26    25    1
    33    40    43    1
    34    16    17    1
    35    25    24    1
    36    25    28    1
    37    24    18   am
    38    19    18    2
    39    18    17    1
    40    17    20    1
    41    98    96   ar
    42    98    97   ar
    43    96    94   ar
    44    97    95   ar
    45    20    21    1
    46    23    21    1
    47    94    93   ar
    48    76    75   ar
    49    21    22    1
    50   107   105   ar
    51   107   108   ar
    52    95    93   ar
    53   105   104   ar
    54    93    92    1
    55    75    77   ar
    56    75    74    1
    57    82    83    1
    58    82    79    1
    59    81    80    2
    60   108   106   ar
    61    85    83   ar
    62    85    87   ar
    63    83    84   ar
    64    74    73    1
    65    87    86   ar
    66    84    86   ar
    67    80    79    1
    68    92    89    1
    69   104   106   ar
    70   104   103    1
    71    73    70    1
    72    79    78    1
    73   133   134    1
    74   133   130    1
    75    89    90    1
    76    89    88    1
    77    72    71    2
    78   132   131    2
    79   103   100    1
    80    99    90   am
    81    99   100    1
    82    70    71    1
    83    70    69    1
    84   134   135    1
    85    68    66   ar
    86    68    67   ar
    87    90    91    2
    88    66    64   ar
    89   130   131    1
    90   130   129    1
    91   100   101    1
    92    58    56    1
    93   131   136   am
    94   143   141    1
    95    56    57    1
    96    56    53    1
    97    69    61   am
    98   102   101    2
    99    55    54    2
   100    62    61    2
   101   135   129    1
   102    67    65   ar
   103   148   149    1
   104   148   145    1
   105    61    60    1
   106   129   119   am
   107    54    53    1
   108    64    65   ar
   109    64    63    1
   110   136   137    1
   111   137   140    1
   112   137   138    1
   113   144   145    1
   114   144   138   am
   115   151   149   ar
   116   151   153   ar
   117    53    52    1
   118   141   140    1
   119   141   142    1
   120   149   150   ar
   121   147   146    2
   122    63    60    1
   123   145   146    1
   124   153   154   ar
   125   138   139    2
   126   119   120    2
   127   119   118    1
   128    60    59    1
   129   150   152   ar
   130    52    46   am
   131   154   152   ar
   132   154   155    1
   133   128   127    1
   134   127   126   ar
   135   127   125   ar
   136   118   117    1
   137   118   121    1
   138   126   124   ar
   139   125   123   ar
   140    46    47    2
   141    46    45    1
   142   124   122   ar
   143   123   122   ar
   144   122   121    1
   145   112   111    2
   146    44    45    1
   147    45    48    1
   148    48    49    1
   149   111   110    1
   150   115   114    1
   151   114   116    1
   152   114   113    1
   153    50    49    1
   154    49    51    1
   155   110   113    1
   156   110   109    1
