@<TRIPOS>MOLECULE
tmp/1b3fA00.pdb
 263 255 0 0 0
SMALL
GASTEIGER

@<TRIPOS>ATOM
      1  N          8.5790   23.8010   12.2050 N.3    32  GLU32      -0.1182
      2  CA         8.4800   22.7450   13.2340 C.3    32  GLU32       0.1915
      3  C          7.1270   22.0860   13.2340 C.2    32  GLU32       0.2635
      4  O          6.9030   21.2570   14.1230 O.2    32  GLU32      -0.2714
      5  CB         8.6310   23.5280   14.5850 C.2    32  GLU32       0.0085
      6  CG         9.3260   22.7650   15.6950 C.2    32  GLU32       0.0835
      7  CD         9.2660   23.3650   17.0780 C.2    32  GLU32       0.3877
      8  OE1        8.8250   24.5540   17.2020 O.co2  32  GLU32      -0.2406
      9  OE2        9.5590   22.6810   18.1290 O.co2  32  GLU32      -0.2406
     10  N          6.2370   22.4160   12.2980 N.am   33  GLY33      -0.1939
     11  CA         4.8620   21.8810   12.4400 C.3    33  GLY33       0.2014
     12  C          4.4050   21.0560   11.2320 C.2    33  GLY33       0.2638
     13  O          5.1000   20.9060   10.2250 O.2    33  GLY33      -0.2714
     14  N          3.2220   20.4650   11.4370 N.am   34  VAL34      -0.1977
     15  CA         2.5690   19.6330   10.4190 C.3    34  VAL34       0.1596
     16  C          2.2700   20.3810    9.1470 C.2    34  VAL34       0.2287
     17  O          2.5930   19.8790    8.0360 O.2    34  VAL34      -0.2864
     18  CB         1.3170   18.9190   10.9950 C.3    34  VAL34       0.0276
     19  CG1        0.5610   18.1410    9.9160 C.3    34  VAL34       0.0022
     20  CG2        1.8260   17.9360   12.0720 C.3    34  VAL34       0.0022
     21  N          5.4560   20.9340    7.3210 N.3    37  SER37      -0.1217
     22  CA         6.0620   19.7080    6.7990 C.3    37  SER37       0.1889
     23  C          5.2640   19.1860    5.6270 C.2    37  SER37       0.2288
     24  O          5.8210   18.6010    4.7040 O.2    37  SER37      -0.2866
     25  CB         6.1240   18.6570    7.9290 C.3    37  SER37       0.2089
     26  OG         7.0070   19.1990    8.9250 O.3    37  SER37      -0.2183
     27  N          7.4020   18.4160    2.1800 N.3    41  ARG41      -0.1245
     28  CA         7.6200   17.1410    1.4960 C.3    41  ARG41       0.1563
     29  C          7.4530   17.2420   -0.0060 C.2    41  ARG41       0.2260
     30  O          8.0600   16.4160   -0.7340 O.2    41  ARG41      -0.2867
     31  CB         6.7000   16.0250    2.0540 C.3    41  ARG41       0.0307
     32  CG         7.0460   15.6050    3.4710 C.3    41  ARG41       0.0489
     33  CD         6.2630   14.3220    3.8430 C.3    41  ARG41       0.2205
     34  NE         4.8470   14.6410    3.9940 N.pl3  41  ARG41      -0.0865
     35  CZ         4.3190   15.2770    5.0380 C.cat  41  ARG41       0.5346
     36  NH1        5.0270   15.6350    6.1100 N.pl3  41  ARG41       0.1354
     37  NH2        3.0040   15.5380    5.0220 N.pl3  41  ARG41       0.1354
     38  N         14.5630   22.9000   15.0770 N.3   109  TYR109     -0.1241
     39  CA        14.9400   21.5120   14.9560 C.3   109  TYR109      0.1605
     40  C         16.4530   21.3130   14.9800 C.2   109  TYR109      0.2264
     41  O         16.9560   20.2630   14.5970 O.2   109  TYR109     -0.2867
     42  CB        14.2810   20.8430   13.7560 C.3   109  TYR109      0.0534
     43  CG        13.0210   20.0620   14.0440 C.ar  109  TYR109     -0.0201
     44  CD1       13.0510   18.8690   14.7400 C.ar  109  TYR109     -0.0009
     45  CD2       11.7730   20.5500   13.6480 C.ar  109  TYR109     -0.0009
     46  CE1       11.8820   18.1470   15.0130 C.ar  109  TYR109      0.0417
     47  CE2       10.6090   19.8380   13.9010 C.ar  109  TYR109      0.0417
     48  CZ        10.6820   18.6270   14.5550 C.ar  109  TYR109      0.1957
     49  OH         9.5070   17.9310   14.7530 O.3   109  TYR109     -0.2866
     50  N         12.4570   13.4710    7.6200 N.3   161  HIS161     -0.1227
     51  CA        11.9950   14.7150    8.2040 C.3   161  HIS161      0.1737
     52  C         12.5350   15.9320    7.5140 C.2   161  HIS161      0.2438
     53  O         13.6870   15.9110    7.0290 O.2   161  HIS161     -0.2733
     54  CB        12.5610   14.6560    9.6470 C.3   161  HIS161      0.0758
     55  CG        11.9050   15.7230   10.4820 C.ar  161  HIS161      0.0818
     56  ND1       12.5500   16.9100   10.7990 N.ar  161  HIS161     -0.2268
     57  CD2       10.6770   15.7480   11.0440 C.ar  161  HIS161      0.1154
     58  CE1       11.7210   17.6240   11.5720 C.ar  161  HIS161      0.1986
     59  NE2       10.5820   16.9330   11.7430 N.ar  161  HIS161     -0.2212
     60  N         11.7710   17.0190    7.4530 N.am  162  PRO162     -0.2729
     61  CA        12.1600   18.1920    6.6790 C.3   162  PRO162      0.1401
     62  C         13.4540   18.8230    7.1520 C.2   162  PRO162      0.2269
     63  O         14.2050   19.3310    6.2920 O.2   162  PRO162     -0.2865
     64  CB        10.9880   19.1440    6.8100 C.3   162  PRO162      0.0296
     65  CG         9.8080   18.2240    6.9790 C.3   162  PRO162      0.0237
     66  CD        10.3770   17.1690    7.9650 C.3   162  PRO162      0.0939
     67  N         -7.9540   19.4430    5.8220 N.3   245  TYR245     -0.1241
     68  CA        -6.8440   19.2400    6.7700 C.3   245  TYR245      0.1605
     69  C         -7.3610   18.1690    7.7420 C.2   245  TYR245      0.2264
     70  O         -8.5510   17.8170    7.6800 O.2   245  TYR245     -0.2867
     71  CB        -6.5260   20.5280    7.4970 C.3   245  TYR245      0.0534
     72  CG        -5.3260   20.4170    8.4280 C.ar  245  TYR245     -0.0201
     73  CD1       -4.0990   20.0500    7.9190 C.ar  245  TYR245     -0.0009
     74  CD2       -5.4570   20.6990    9.7700 C.ar  245  TYR245     -0.0009
     75  CE1       -2.9980   19.9160    8.7680 C.ar  245  TYR245      0.0417
     76  CE2       -4.3730   20.5990   10.6370 C.ar  245  TYR245      0.0417
     77  CZ        -3.1630   20.2010   10.1100 C.ar  245  TYR245      0.1957
     78  OH        -2.0610   20.0590   10.9360 O.3   245  TYR245     -0.2866
     79  N         -7.9490   17.9590   11.0120 N.3   247  ASN247     -0.1240
     80  CA        -8.5270   18.4980   12.2180 C.3   247  ASN247      0.1653
     81  C        -10.0330   18.5790   11.8300 C.2   247  ASN247      0.2266
     82  O        -10.3130   19.1500   10.7590 O.2   247  ASN247     -0.2867
     83  CB        -8.0850   19.8910   12.6250 C.3   247  ASN247      0.1155
     84  CG        -6.8400   20.0370   13.4490 C.2   247  ASN247      0.2627
     85  OD1       -6.2800   19.1160   14.0320 O.2   247  ASN247     -0.2716
     86  ND2       -6.3770   21.3120   13.5330 N.am  247  ASN247     -0.0877
     87  N         -2.8770    7.2420   14.1420 N.3   269  TYR269     -0.1241
     88  CA        -2.0100    8.4420   13.9830 C.3   269  TYR269      0.1605
     89  C         -1.1440    8.5690   15.2070 C.2   269  TYR269      0.2264
     90  O         -1.6800    8.5090   16.3490 O.2   269  TYR269     -0.2867
     91  CB        -2.9640    9.6390   13.8150 C.3   269  TYR269      0.0534
     92  CG        -2.4290   10.9140   13.2270 C.ar  269  TYR269     -0.0201
     93  CD1       -1.2470   10.9850   12.4770 C.ar  269  TYR269     -0.0009
     94  CD2       -3.1660   12.0980   13.4400 C.ar  269  TYR269     -0.0009
     95  CE1       -0.8460   12.1960   11.9520 C.ar  269  TYR269      0.0417
     96  CE2       -2.7470   13.3130   12.8940 C.ar  269  TYR269      0.0417
     97  CZ        -1.5960   13.3380   12.1460 C.ar  269  TYR269      0.1957
     98  OH        -1.2000   14.5410   11.5950 O.3   269  TYR269     -0.2866
     99  N         -2.4750   17.3630   24.1460 N.3   274  TYR274     -0.1241
    100  CA        -2.2540   17.5780   25.5680 C.3   274  TYR274      0.1605
    101  C         -2.2710   19.0510   25.9010 C.2   274  TYR274      0.2264
    102  O         -2.2060   19.8770   24.9870 O.2   274  TYR274     -0.2867
    103  CB        -0.8980   16.9850   26.0020 C.3   274  TYR274      0.0534
    104  CG         0.3560   17.5010   25.3450 C.ar  274  TYR274     -0.0201
    105  CD1        0.7070   17.1470   24.0450 C.ar  274  TYR274     -0.0009
    106  CD2        1.2100   18.3520   26.0670 C.ar  274  TYR274     -0.0009
    107  CE1        1.8900   17.6120   23.4860 C.ar  274  TYR274      0.0417
    108  CE2        2.4130   18.8050   25.5240 C.ar  274  TYR274      0.0417
    109  CZ         2.7270   18.4370   24.2330 C.ar  274  TYR274      0.1957
    110  OH         3.8890   18.8840   23.6370 O.3   274  TYR274     -0.2866
    111  N         -4.0690   27.8010   19.4760 N.3   366  ASN366     -0.1240
    112  CA        -4.0490   28.4020   18.1260 C.3   366  ASN366      0.1653
    113  C         -5.4510   28.4220   17.5480 C.2   366  ASN366      0.2266
    114  O         -6.2630   27.5110   17.6890 O.2   366  ASN366     -0.2867
    115  CB        -3.0730   27.5460   17.2950 C.3   366  ASN366      0.1155
    116  CG        -3.4240   26.0720   17.1970 C.2   366  ASN366      0.2627
    117  OD1       -3.4490   25.3700   18.2110 O.2   366  ASN366     -0.2716
    118  ND2       -3.6990   25.5820   15.9730 N.am  366  ASN366     -0.0877
    119  N         -9.9940   23.5120   18.5900 N.3   371  HIS371     -0.1241
    120  CA        -9.3000   23.8480   19.8400 C.3   371  HIS371      0.1621
    121  C        -10.1290   24.7810   20.7340 C.2   371  HIS371      0.2264
    122  O        -10.0160   24.6630   21.9590 O.2   371  HIS371     -0.2867
    123  CB        -7.9040   24.4440   19.5970 C.3   371  HIS371      0.0745
    124  CG        -7.0920   23.5290   18.7250 C.ar  371  HIS371      0.0817
    125  ND1       -7.0230   22.1810   18.9670 N.ar  371  HIS371     -0.2268
    126  CD2       -6.2920   23.8070   17.6410 C.ar  371  HIS371      0.1154
    127  CE1       -6.2320   21.6080   18.0290 C.ar  371  HIS371      0.1986
    128  NE2       -5.8040   22.5890   17.2450 N.ar  371  HIS371     -0.2212
    129  N         -1.3630   30.3540   14.2330 N.3   397  TRP397     -0.1241
    130  CA        -0.3050   29.3460   14.3430 C.3   397  TRP397      0.1605
    131  C          1.1320   29.7790   14.4980 C.2   397  TRP397      0.2264
    132  O          1.8170   29.3740   15.4320 O.2   397  TRP397     -0.2867
    133  CB        -0.3970   28.4640   13.0760 C.3   397  TRP397      0.0550
    134  CG         0.4680   27.2240   13.0520 C.ar  397  TRP397      0.0003
    135  CD1        1.3970   26.9780   12.0800 C.ar  397  TRP397      0.0946
    136  CD2        0.4290   26.0620   13.8660 C.ar  397  TRP397      0.0152
    137  NE1        1.9910   25.7590   12.2740 N.ar  397  TRP397     -0.2442
    138  CE2        1.3840   25.1510   13.3540 C.ar  397  TRP397      0.0810
    139  CE3       -0.3110   25.7000   15.0030 C.ar  397  TRP397      0.0012
    140  CZ2        1.6440   23.9090   13.9230 C.ar  397  TRP397      0.0191
    141  CZ3       -0.0720   24.4450   15.5760 C.ar  397  TRP397      0.0001
    142  CH2        0.9120   23.5720   15.0340 C.ar  397  TRP397      0.0015
    143  N          1.6320   31.5910   17.7920 N.3   400  PHE400     -0.1227
    144  CA         1.4240   30.6220   18.8800 C.3   400  PHE400      0.1736
    145  C          2.6460   29.7960   19.1620 C.2   400  PHE400      0.2595
    146  O          2.9930   29.5960   20.3490 O.2   400  PHE400     -0.2718
    147  CB         0.2890   29.7250   18.3770 C.3   400  PHE400      0.0547
    148  CG        -0.0030   28.4600   19.1400 C.ar  400  PHE400     -0.0202
    149  CD1       -0.5670   28.5290   20.4020 C.ar  400  PHE400     -0.0042
    150  CD2        0.2480   27.2150   18.5610 C.ar  400  PHE400     -0.0042
    151  CE1       -0.8740   27.3490   21.0770 C.ar  400  PHE400     -0.0003
    152  CE2       -0.0550   26.0410   19.2370 C.ar  400  PHE400     -0.0003
    153  CZ        -0.6460   26.1230   20.4930 C.ar  400  PHE400     -0.0000
    154  N          3.3020   29.2480   18.1070 N.am  401  LEU401     -0.1980
    155  CA         4.5160   28.4710   18.3690 C.3   401  LEU401      0.1596
    156  C          5.6200   29.3620   18.9340 C.2   401  LEU401      0.2287
    157  O          6.3630   28.9490   19.8590 O.2   401  LEU401     -0.2864
    158  CB         5.0200   27.7400   17.1240 C.3   401  LEU401      0.0297
    159  CG         3.9900   26.7530   16.5100 C.3   401  LEU401      0.0022
    160  CD1        4.4900   26.1970   15.2010 C.3   401  LEU401      0.0001
    161  CD2        3.6970   25.6440   17.5360 C.3   401  LEU401      0.0001
    162  N          5.0730   29.9530   22.6390 N.3   404  ARG404     -0.1245
    163  CA         5.4530   28.7880   23.4690 C.3   404  ARG404      0.1563
    164  C          6.9610   28.7140   23.5870 C.2   404  ARG404      0.2260
    165  O          7.4130   28.3650   24.6830 O.2   404  ARG404     -0.2867
    166  CB         4.8440   27.5050   22.8970 C.3   404  ARG404      0.0307
    167  CG         3.3130   27.5320   22.9430 C.3   404  ARG404      0.0489
    168  CD         2.6480   26.4570   22.0940 C.3   404  ARG404      0.2205
    169  NE         3.1020   25.1060   22.5120 N.pl3 404  ARG404     -0.0865
    170  CZ         2.8970   24.0120   21.7590 C.cat 404  ARG404      0.5346
    171  NH1        2.2790   24.0840   20.5880 N.pl3 404  ARG404      0.1354
    172  NH2        3.3510   22.8260   22.2070 N.pl3 404  ARG404      0.1354
    173  N         -2.6350   24.8460   24.7240 N.3   413  ARG413     -0.1245
    174  CA        -3.1160   23.6950   23.9840 C.3   413  ARG413      0.1563
    175  C         -1.9020   23.1770   23.2130 C.2   413  ARG413      0.2260
    176  O         -1.0630   23.9880   22.7920 O.2   413  ARG413     -0.2867
    177  CB        -4.2720   24.1550   23.0960 C.3   413  ARG413      0.0307
    178  CG        -4.8690   23.1240   22.1350 C.3   413  ARG413      0.0489
    179  CD        -4.1490   23.3440   20.7670 C.3   413  ARG413      0.2205
    180  NE        -3.8060   22.0230   20.3110 N.pl3 413  ARG413     -0.0865
    181  CZ        -3.0120   21.7870   19.2620 C.cat 413  ARG413      0.5346
    182  NH1       -2.5600   22.7740   18.4900 N.pl3 413  ARG413      0.1354
    183  NH2       -2.8180   20.4920   19.0540 N.pl3 413  ARG413      0.1354
    184  N          0.1120   19.5580   20.8930 N.3   415  GLY415     -0.1210
    185  CA        -0.0630   18.2980   20.2040 C.3   415  GLY415      0.1956
    186  C          1.2350   18.0160   19.4430 C.2   415  GLY415      0.2612
    187  O          1.7040   18.8740   18.7060 O.2   415  GLY415     -0.2717
    188  N          1.7720   16.8500   19.7510 N.am  416  TRP416     -0.1962
    189  CA         3.0170   16.4720   19.0640 C.3   416  TRP416      0.1771
    190  C          2.7210   15.2320   18.2360 C.2   416  TRP416      0.2620
    191  O          2.0640   14.2940   18.7310 O.2   416  TRP416     -0.2715
    192  CB         4.1120   16.2210   20.1100 C.3   416  TRP416      0.0590
    193  CG         5.4900   15.9370   19.5100 C.ar  416  TRP416      0.0006
    194  CD1        6.1390   14.7290   19.4850 C.ar  416  TRP416      0.0946
    195  CD2        6.3860   16.8850   18.9280 C.ar  416  TRP416      0.0152
    196  NE1        7.3790   14.8540   18.8440 N.ar  416  TRP416     -0.2442
    197  CE2        7.5310   16.1830   18.5290 C.ar  416  TRP416      0.0810
    198  CE3        6.2850   18.2740   18.7410 C.ar  416  TRP416      0.0012
    199  CZ2        8.6370   16.7990   17.9330 C.ar  416  TRP416      0.0191
    200  CZ3        7.3840   18.9080   18.1210 C.ar  416  TRP416      0.0001
    201  CH2        8.5260   18.1540   17.7400 C.ar  416  TRP416      0.0015
    202  N          3.2410   15.1820   17.0070 N.am  417  CYS417     -0.1954
    203  CA         3.1360   14.0310   16.1540 C.3   417  CYS417      0.1843
    204  C          4.5600   13.5090   15.8840 C.2   417  CYS417      0.2625
    205  O          5.4740   14.3210   15.7180 O.2   417  CYS417     -0.2714
    206  CB         2.5600   14.3500   14.7670 C.3   417  CYS417      0.0997
    207  SG         0.8170   14.8630   14.8410 S.3   417  CYS417     -0.0797
    208  N          4.7100   12.2100   15.8550 N.am  418  ALA418     -0.1963
    209  CA         6.0420   11.6210   15.6650 C.3   418  ALA418      0.1728
    210  C          6.6910   12.0800   14.3550 C.2   418  ALA418      0.2616
    211  O          6.0080   12.3030   13.3460 O.2   418  ALA418     -0.2715
    212  CB         5.9210   10.0890   15.5690 C.3   418  ALA418      0.0334
    213  N          8.0330   12.1980   14.4320 N.am  419  ASP419     -0.1971
    214  CA         8.7920   12.4880   13.1920 C.3   419  ASP419      0.1709
    215  C          9.3420   11.1720   12.6420 C.2   419  ASP419      0.2293
    216  O          9.6480   11.0650   11.4340 O.2   419  ASP419     -0.2864
    217  CB         9.9370   13.4510   13.5670 C.3   419  ASP419      0.1436
    218  CG         9.3580   14.7860   14.0440 C.2   419  ASP419      0.3671
    219  OD1        8.3600   15.2490   13.4450 O.co2 419  ASP419     -0.2456
    220  OD2        9.9380   15.3330   14.9800 O.co2 419  ASP419     -0.2456
    221  N         13.1500   21.5620   20.7890 N.3   436  ASN436     -0.1240
    222  CA        11.7000   21.4040   20.6650 C.3   436  ASN436      0.1653
    223  C         11.0110   21.4480   22.0330 C.2   436  ASN436      0.2266
    224  O          9.8060   21.2110   22.0730 O.2   436  ASN436     -0.2867
    225  CB        11.4430   19.9970   20.0820 C.3   436  ASN436      0.1155
    226  CG        11.9710   19.8340   18.6530 C.2   436  ASN436      0.2627
    227  OD1       12.7840   18.9300   18.4470 O.2   436  ASN436     -0.2716
    228  ND2       11.4360   20.6280   17.7190 N.am  436  ASN436     -0.0877
    229  N          9.0660   22.9760   24.3820 N.3   438  THR438     -0.1218
    230  CA         8.2420   24.1500   24.6810 C.3   438  THR438      0.1862
    231  C          7.5790   24.0040   26.0380 C.2   438  THR438      0.2287
    232  O          6.9010   24.9410   26.5120 O.2   438  THR438     -0.2866
    233  CB         7.1930   24.3710   23.5540 C.3   438  THR438      0.1770
    234  OG1        6.6930   23.1020   23.1520 O.3   438  THR438     -0.2211
    235  CG2        7.8780   24.9530   22.3250 C.3   438  THR438      0.0375
    236  N         -4.4840   11.0080   19.1730 N.3   485  TYR485     -0.1241
    237  CA        -5.3010   11.3660   18.0480 C.3   485  TYR485      0.1605
    238  C         -5.5180   10.1540   17.1260 C.2   485  TYR485      0.2264
    239  O         -4.7200    9.2670   17.0240 O.2   485  TYR485     -0.2867
    240  CB        -4.5870   12.3010   17.0640 C.3   485  TYR485      0.0534
    241  CG        -4.3070   13.7210   17.3570 C.ar  485  TYR485     -0.0201
    242  CD1       -3.4580   14.1200   18.3790 C.ar  485  TYR485     -0.0009
    243  CD2       -4.8530   14.7200   16.5470 C.ar  485  TYR485     -0.0009
    244  CE1       -3.1580   15.4490   18.5880 C.ar  485  TYR485      0.0417
    245  CE2       -4.6090   16.0470   16.7630 C.ar  485  TYR485      0.0417
    246  CZ        -3.7420   16.3980   17.7630 C.ar  485  TYR485      0.1957
    247  OH        -3.4400   17.7160   17.9890 O.3   485  TYR485     -0.2866
    248  N          2.3910    8.0960   10.4860 N.3   504  LEU504     -0.1245
    249  CA         2.9890    9.4170   10.5370 C.3   504  LEU504      0.1561
    250  C          2.2850   10.3960    9.5890 C.2   504  LEU504      0.2260
    251  O          2.5450   11.6110    9.6580 O.2   504  LEU504     -0.2867
    252  CB         4.4900    9.3930   10.2220 C.3   504  LEU504      0.0270
    253  CG         5.4960    9.0390   11.3330 C.3   504  LEU504      0.0019
    254  CD1        4.9820    8.0850   12.3530 C.3   504  LEU504      0.0001
    255  CD2        6.7780    8.4570   10.6930 C.3   504  LEU504      0.0001
    256  N          2.8200   10.9710    6.4010 N.3   506  ASN506     -0.1240
    257  CA         3.8170   11.6670    5.5510 C.3   506  ASN506      0.1653
    258  C          3.3530   11.6010    4.0960 C.2   506  ASN506      0.2266
    259  O          3.9410   10.8630    3.3100 O.2   506  ASN506     -0.2867
    260  CB         5.1820   10.9750    5.7100 C.3   506  ASN506      0.1155
    261  CG         5.9080   11.4020    6.9610 C.2   506  ASN506      0.2627
    262  OD1        5.8320   12.5670    7.3610 O.2   506  ASN506     -0.2716
    263  ND2        6.6360   10.4790    7.6110 N.am  506  ASN506     -0.0877
@<TRIPOS>BOND
     1    30    29    2
     2    29    28    1
     3    28    31    1
     4    28    27    1
     5    31    32    1
     6   259   258    2
     7    32    33    1
     8    33    34    1
     9    34    35    2
    10   258   257    1
    11    24    23    2
    12    37    35    1
    13    35    36    1
    14   257   260    1
    15   257   256    1
    16    23    22    1
    17   260   261    1
    18    67    68    1
    19    63    62    2
    20    61    64    1
    21    61    62    1
    22    61    60    1
    23    68    71    1
    24    68    69    1
    25    22    21    1
    26    22    25    1
    27    64    65    1
    28   261   262    2
    29   261   263   am
    30    65    66    1
    31    53    52    2
    32    60    52   am
    33    60    66    1
    34    71    72    1
    35    52    51    1
    36    50    51    1
    37    70    69    2
    38    73    72   ar
    39    73    75   ar
    40    25    26    1
    41    17    16    2
    42    51    54    1
    43    72    74   ar
    44    75    77   ar
    45    16    15    1
    46   250   251    2
    47   250   249    1
    48    54    55    1
    49    74    76   ar
    50    19    18    1
    51    77    76   ar
    52    77    78    1
    53   252   249    1
    54   252   253    1
    55    13    12    2
    56    15    18    1
    57    15    14    1
    58    55    56   ar
    59    55    57   ar
    60   248   249    1
    61   255   253    1
    62    82    81    2
    63    56    58   ar
    64    18    20    1
    65    79    80    1
    66    57    59   ar
    67    12    14   am
    68    12    11    1
    69   253   254    1
    70   216   215    2
    71    58    59   ar
    72    98    97    1
    73    81    80    1
    74    95    97   ar
    75    95    93   ar
    76   135   137   ar
    77   135   134   ar
    78    97    96   ar
    79     1     2    1
    80    80    83    1
    81   137   138   ar
    82    10    11    1
    83    10     3   am
    84    93    92   ar
    85    83    84    1
    86   215   214    1
    87    96    94   ar
    88   134   133    1
    89   134   136   ar
    90   133   130    1
    91   214   217    1
    92   214   213    1
    93    92    94   ar
    94    92    91    1
    95     3     2    1
    96     3     4    2
    97     2     5    1
    98   211   210    2
    99   138   136   ar
   100   138   140   ar
   101   219   218   ar
   102    84    86   am
   103    84    85    2
   104   217   218    1
   105    45    47   ar
   106    45    43   ar
   107    42    43    1
   108    42    39    1
   109    91    88    1
   110   136   139   ar
   111    47    48   ar
   112   140   142   ar
   113    88    87    1
   114    88    89    1
   115   218   220   ar
   116    43    44   ar
   117   129   130    1
   118   130   131    1
   119   210   213   am
   120   210   209    1
   121   131   132    2
   122    48    49    1
   123    48    46   ar
   124     5     6    2
   125    41    40    2
   126    44    46   ar
   127   206   207    1
   128   206   203    1
   129    39    40    1
   130    39    38    1
   131   139   141   ar
   132   142   141   ar
   133   160   159    1
   134    89    90    2
   135   212   209    1
   136   209   208    1
   137     6     7    1
   138   205   204    2
   139   208   204   am
   140   204   203    1
   141   118   116   am
   142   203   202    1
   143   159   158    1
   144   159   161    1
   145   243   245   ar
   146   243   241   ar
   147   245   246   ar
   148   202   190   am
   149   239   238    2
   150   240   241    1
   151   240   237    1
   152     7     8   ar
   153     7     9   ar
   154   158   155    1
   155   238   237    1
   156   116   115    1
   157   116   117    2
   158   128   126   ar
   159   128   127   ar
   160   115   112    1
   161   241   242   ar
   162   113   114    2
   163   113   112    1
   164   126   124   ar
   165   228   226   am
   166   201   199   ar
   167   201   200   ar
   168   246   247    1
   169   246   244   ar
   170   143   144    1
   171   199   197   ar
   172   127   125   ar
   173   237   236    1
   174   154   155    1
   175   154   145   am
   176   200   198   ar
   177   112   111    1
   178   190   191    2
   179   190   189    1
   180   155   156    1
   181   147   144    1
   182   147   148    1
   183   242   244   ar
   184   227   226    2
   185   182   181    1
   186   197   196   ar
   187   197   195   ar
   188   150   148   ar
   189   150   152   ar
   190   119   120    1
   191   226   225    1
   192   187   186    2
   193   124   125   ar
   194   124   123    1
   195   198   195   ar
   196   196   194   ar
   197   144   145    1
   198   195   193   ar
   199   156   157    2
   200   183   181    1
   201   189   188    1
   202   189   192    1
   203   148   149   ar
   204   145   146    2
   205   152   153   ar
   206   181   180    2
   207   186   188   am
   208   186   185    1
   209   194   193   ar
   210   193   192    1
   211   123   120    1
   212   120   121    1
   213   225   222    1
   214   185   184    1
   215   180   179    1
   216   149   151   ar
   217   153   151   ar
   218   171   170    1
   219   222   221    1
   220   222   223    1
   221   121   122    2
   222   179   178    1
   223   170   172    1
   224   170   169    2
   225   223   224    2
   226   168   169    1
   227   168   167    1
   228   178   177    1
   229   235   233    1
   230   162   163    1
   231   176   175    2
   232   166   167    1
   233   166   163    1
   234   177   174    1
   235   234   233    1
   236   175   174    1
   237   163   164    1
   238   107   105   ar
   239   107   109   ar
   240   233   230    1
   241   164   165    2
   242   110   109    1
   243   174   173    1
   244   105   104   ar
   245    99   100    1
   246   109   108   ar
   247   229   230    1
   248   230   231    1
   249   102   101    2
   250   104   103    1
   251   104   106   ar
   252   108   106   ar
   253   100   101    1
   254   100   103    1
   255   231   232    2
