@<TRIPOS>MOLECULE
tmp/1b3jA00.pdb
 109 98 0 0 0
SMALL
GASTEIGER

@<TRIPOS>ATOM
      1  N        125.3710   79.3350   46.9600 N.3     6  ARG6       -0.1245
      2  CA       125.1240   79.2440   48.3920 C.3     6  ARG6        0.1563
      3  C        126.0840   78.2310   48.9880 C.2     6  ARG6        0.2260
      4  O        126.2550   77.1310   48.4420 O.2     6  ARG6       -0.2867
      5  CB       123.6780   78.8170   48.6520 C.3     6  ARG6        0.0307
      6  CG       123.3790   78.4180   50.0840 C.3     6  ARG6        0.0489
      7  CD       122.0900   77.5990   50.1810 C.3     6  ARG6        0.2205
      8  NE       120.9210   78.3670   49.7610 N.pl3   6  ARG6       -0.0865
      9  CZ       119.6620   77.9990   49.9740 C.cat   6  ARG6        0.5346
     10  NH1      119.3840   76.8640   50.6110 N.pl3   6  ARG6        0.1354
     11  NH2      118.6730   78.7660   49.5410 N.pl3   6  ARG6        0.1354
     12  N        126.8890   76.2240   52.5350 N.3     8  ASN8       -0.1240
     13  CA       126.2910   75.8580   53.8270 C.3     8  ASN8        0.1653
     14  C        127.3390   75.2120   54.7290 C.2     8  ASN8        0.2266
     15  O        127.6130   74.0220   54.6310 O.2     8  ASN8       -0.2867
     16  CB       125.1230   74.8660   53.6270 C.3     8  ASN8        0.1155
     17  CG       124.3400   74.5770   54.9270 C.2     8  ASN8        0.2627
     18  OD1      124.8140   74.8840   56.0010 O.2     8  ASN8       -0.2716
     19  ND2      123.1390   73.9940   54.8500 N.am    8  ASN8       -0.0877
     20  N        128.6170   73.8200   58.2450 N.3    10  THR10      -0.1218
     21  CA       128.1360   73.3150   59.5200 C.3    10  THR10       0.1862
     22  C        129.2670   72.9330   60.4540 C.2    10  THR10       0.2287
     23  O        130.2340   72.2890   60.0550 O.2    10  THR10      -0.2866
     24  CB       127.2650   72.0990   59.3360 C.3    10  THR10       0.1770
     25  OG1      126.2330   72.3880   58.3850 O.3    10  THR10      -0.2211
     26  CG2      126.6630   71.7050   60.6650 C.3    10  THR10       0.0375
     27  N        130.2680   71.4800   64.5610 N.3    12  LEU12      -0.1245
     28  CA       129.7910   70.8070   65.7630 C.3    12  LEU12       0.1561
     29  C        130.5060   71.1380   67.0690 C.2    12  LEU12       0.2260
     30  O        131.6690   71.5400   67.0880 O.2    12  LEU12      -0.2867
     31  CB       129.8500   69.3040   65.5420 C.3    12  LEU12       0.0270
     32  CG       129.3680   68.7980   64.1850 C.3    12  LEU12       0.0019
     33  CD1      129.8100   67.3720   64.0130 C.3    12  LEU12       0.0001
     34  CD2      127.8540   68.8870   64.0960 C.3    12  LEU12       0.0001
     35  N        131.5880   70.3650   57.7210 N.3    23  LEU23      -0.1245
     36  CA       131.2660   70.1570   56.3250 C.3    23  LEU23       0.1561
     37  C        130.5800   71.3310   55.6360 C.2    23  LEU23       0.2260
     38  O        129.8000   72.0650   56.2490 O.2    23  LEU23      -0.2867
     39  CB       130.3960   68.9060   56.2090 C.3    23  LEU23       0.0270
     40  CG       129.8770   68.5400   54.8210 C.3    23  LEU23       0.0019
     41  CD1      130.6440   67.3510   54.2790 C.3    23  LEU23       0.0001
     42  CD2      128.4000   68.2240   54.9060 C.3    23  LEU23       0.0001
     43  N        128.2520   72.5390   52.2790 N.3    25  GLU25      -0.1245
     44  CA       127.3520   72.1610   51.2090 C.3    25  GLU25       0.1567
     45  C        127.2800   73.3330   50.2670 C.2    25  GLU25       0.2260
     46  O        126.9010   74.4320   50.6640 O.2    25  GLU25      -0.2867
     47  CB       125.9720   71.9020   51.7700 C.3    25  GLU25       0.0388
     48  CG       125.5580   70.4710   51.8020 C.3    25  GLU25       0.1160
     49  CD       124.1420   70.3480   52.2810 C.2    25  GLU25       0.3649
     50  OE1      123.3970   71.3550   52.1890 O.co2  25  GLU25      -0.2457
     51  OE2      123.7740   69.2560   52.7520 O.co2  25  GLU25      -0.2457
     52  N        130.6830   69.1430   47.9430 N.3    35  ARG35      -0.1245
     53  CA       130.5600   68.7910   49.3580 C.3    35  ARG35       0.1563
     54  C        131.9930   68.7830   49.8620 C.2    35  ARG35       0.2260
     55  O        132.8550   68.1280   49.2740 O.2    35  ARG35      -0.2867
     56  CB       129.9350   67.4100   49.5250 C.3    35  ARG35       0.0307
     57  CG       128.4700   67.4580   49.8830 C.3    35  ARG35       0.0489
     58  CD       128.0720   66.4040   50.9110 C.3    35  ARG35       0.2205
     59  NE       126.6920   66.6150   51.3380 N.pl3  35  ARG35      -0.0865
     60  CZ       126.2640   66.5000   52.5930 C.cat  35  ARG35       0.5346
     61  NH1      127.1100   66.1730   53.5560 N.pl3  35  ARG35       0.1354
     62  NH2      124.9890   66.7390   52.8920 N.pl3  35  ARG35       0.1354
     63  N        125.3100   72.1940   66.9330 N.3    89  SER89      -0.1217
     64  CA       125.8550   72.6340   65.6650 C.3    89  SER89       0.1889
     65  C        125.6110   74.1060   65.4250 C.2    89  SER89       0.2288
     66  O        124.6780   74.6940   65.9710 O.2    89  SER89      -0.2866
     67  CB       125.2150   71.8510   64.5240 C.3    89  SER89       0.2089
     68  OG       123.8830   72.2980   64.3040 O.3    89  SER89      -0.2183
     69  N        125.5470   76.6950   62.0320 N.3    91  GLN91      -0.1245
     70  CA       125.6770   76.7880   60.5980 C.3    91  GLN91       0.1566
     71  C        125.6850   78.2180   60.1410 C.2    91  GLN91       0.2260
     72  O        125.0220   79.0910   60.7130 O.2    91  GLN91      -0.2867
     73  CB       124.5470   76.0610   59.8980 C.3    91  GLN91       0.0367
     74  CG       124.5220   74.5860   60.1410 C.3    91  GLN91       0.0905
     75  CD       123.1160   74.1120   60.4180 C.2    91  GLN91       0.2608
     76  OE1      122.1580   74.6080   59.8190 O.2    91  GLN91      -0.2717
     77  NE2      122.9740   73.1590   61.3320 N.am   91  GLN91      -0.0878
     78  N        125.1510   80.0130   56.5410 N.3    93  ILE93      -0.1245
     79  CA       124.8230   79.8790   55.1410 C.3    93  ILE93       0.1561
     80  C        125.0060   81.2200   54.4550 C.2    93  ILE93       0.2260
     81  O        124.2870   82.1680   54.7320 O.2    93  ILE93      -0.2867
     82  CB       123.3800   79.4200   54.9130 C.3    93  ILE93       0.0252
     83  CG1      123.1440   78.0550   55.5530 C.3    93  ILE93       0.0019
     84  CG2      123.1340   79.2870   53.4220 C.3    93  ILE93       0.0019
     85  CD1      121.6990   77.7060   55.6590 C.3    93  ILE93       0.0001
     86  N        122.7810   79.6620   62.2700 N.3   111  TYR111     -0.1241
     87  CA       121.8150   78.7950   62.9480 C.3   111  TYR111      0.1605
     88  C        122.4180   77.9770   64.0790 C.2   111  TYR111      0.2264
     89  O        123.5400   77.4770   63.9830 O.2   111  TYR111     -0.2867
     90  CB       121.1750   77.8040   61.9750 C.3   111  TYR111      0.0534
     91  CG       120.7270   78.3820   60.6640 C.ar  111  TYR111     -0.0201
     92  CD1      121.6490   78.7910   59.7040 C.ar  111  TYR111     -0.0009
     93  CD2      119.3760   78.4790   60.3630 C.ar  111  TYR111     -0.0009
     94  CE1      121.2270   79.2820   58.4700 C.ar  111  TYR111      0.0417
     95  CE2      118.9460   78.9660   59.1410 C.ar  111  TYR111      0.0417
     96  CZ       119.8700   79.3620   58.1970 C.ar  111  TYR111      0.1957
     97  OH       119.4200   79.8170   56.9810 O.3   111  TYR111     -0.2866
     98  N        121.8720   74.6380   66.1360 N.3   113  ASP113     -0.1225
     99  CA       121.1560   73.3820   66.1710 C.3   113  ASP113      0.1805
    100  C        120.0300   73.4690   65.1660 C.2   113  ASP113      0.2598
    101  O        118.9550   72.9400   65.4060 O.2   113  ASP113     -0.2718
    102  CB       120.5680   73.1280   67.5580 C.3   113  ASP113      0.1424
    103  CG       121.6160   72.6950   68.5650 C.2   113  ASP113      0.3668
    104  OD1      122.6960   72.1930   68.1550 O.co2 113  ASP113     -0.2456
    105  OD2      121.3510   72.8680   69.7770 O.co2 113  ASP113     -0.2456
    106  N        120.2780   74.1650   64.0600 N.am  114  GLY114     -0.1957
    107  CA       119.2730   74.2890   63.0140 C.3   114  GLY114      0.1869
    108  C        118.3690   75.5090   63.0530 C.2   114  GLY114      0.2309
    109  O        117.7430   75.8460   62.0520 O.2   114  GLY114     -0.2863
@<TRIPOS>BOND
     1     1     2    1
     2    52    53    1
     3     2     5    1
     4     2     3    1
     5     4     3    2
     6     5     6    1
     7    55    54    2
     8    53    56    1
     9    53    54    1
    10    56    57    1
    11    11     9    1
    12     8     9    2
    13     8     7    1
    14    57    58    1
    15     9    10    1
    16     6     7    1
    17    45    46    2
    18    45    44    1
    19    58    59    1
    20    44    47    1
    21    44    43    1
    22    59    60    2
    23    47    48    1
    24    48    49    1
    25    50    49   ar
    26    49    51   ar
    27    12    13    1
    28    60    62    1
    29    60    61    1
    30    84    82    1
    31    16    13    1
    32    16    17    1
    33    13    14    1
    34    41    40    1
    35    80    81    2
    36    80    79    1
    37    15    14    2
    38    40    42    1
    39    40    39    1
    40    19    17   am
    41    82    79    1
    42    82    83    1
    43    17    18    2
    44    79    78    1
    45    83    85    1
    46    37    38    2
    47    37    36    1
    48    39    36    1
    49    36    35    1
    50    97    96    1
    51    96    94   ar
    52    96    95   ar
    53    20    21    1
    54    25    24    1
    55    94    92   ar
    56    95    93   ar
    57    24    21    1
    58    24    26    1
    59    21    22    1
    60    92    91   ar
    61    76    75    2
    62    73    74    1
    63    73    70    1
    64    23    22    2
    65    71    70    1
    66    71    72    2
    67    74    75    1
    68    93    91   ar
    69    75    77   am
    70    70    69    1
    71    91    90    1
    72    90    87    1
    73   109   108    2
    74    86    87    1
    75    87    88    1
    76   107   108    1
    77   107   106    1
    78    89    88    2
    79    33    32    1
    80   106   100   am
    81    34    32    1
    82    32    31    1
    83    68    67    1
    84    67    64    1
    85    27    28    1
    86   100   101    2
    87   100    99    1
    88    65    64    1
    89    65    66    2
    90    31    28    1
    91    64    63    1
    92    28    29    1
    93    98    99    1
    94    99   102    1
    95    29    30    2
    96   102   103    1
    97   104   103   ar
    98   103   105   ar
