@<TRIPOS>MOLECULE
tmp/1b3nA00.pdb
 151 143 0 0 0
SMALL
GASTEIGER

@<TRIPOS>ATOM
      1  N         19.5470   25.4750    5.0950 N.3   106  GLY106     -0.1210
      2  CA        18.6390   26.4530    5.6550 C.3   106  GLY106      0.1956
      3  C         18.6250   27.7020    4.7810 C.2   106  GLY106      0.2611
      4  O         17.5310   28.1230    4.4180 O.2   106  GLY106     -0.2717
      5  N         19.7810   28.2950    4.4960 N.am  107  ILE107     -0.1979
      6  CA        19.8540   29.5170    3.6970 C.3   107  ILE107      0.1595
      7  C         20.7950   29.4090    2.5020 C.2   107  ILE107      0.2287
      8  O         20.8370   30.2950    1.6450 O.2   107  ILE107     -0.2864
      9  CB        20.2930   30.7440    4.5260 C.3   107  ILE107      0.0276
     10  CG1       19.9990   32.0670    3.8120 C.3   107  ILE107      0.0022
     11  CG2       21.7900   30.6770    4.8340 C.3   107  ILE107      0.0022
     12  CD1       18.7400   32.7730    4.2090 C.3   107  ILE107      0.0001
     13  N         25.1410   32.1420    1.6460 N.3   110  LEU110     -0.1245
     14  CA        25.2850   33.4860    2.1830 C.3   110  LEU110      0.1561
     15  C         26.6120   34.1440    1.8390 C.2   110  LEU110      0.2260
     16  O         26.6550   35.3430    1.5730 O.2   110  LEU110     -0.2867
     17  CB        25.1070   33.4580    3.7090 C.3   110  LEU110      0.0270
     18  CG        23.8490   34.1360    4.2520 C.3   110  LEU110      0.0019
     19  CD1       23.9660   34.3020    5.7580 C.3   110  LEU110      0.0001
     20  CD2       23.6050   35.4700    3.5840 C.3   110  LEU110      0.0001
     21  N         14.5880   25.6790    7.2840 N.3   161  ALA161     -0.1231
     22  CA        15.3880   26.2160    8.3820 C.3   161  ALA161      0.1694
     23  C         16.1210   25.0800    9.0830 C.2   161  ALA161      0.2592
     24  O         16.6120   24.1640    8.4140 O.2   161  ALA161     -0.2718
     25  CB        14.4790   26.9480    9.3530 C.3   161  ALA161      0.0304
     26  N         16.1220   25.0660   10.4150 N.am  162  CYS162     -0.1970
     27  CA        16.7850   24.0380   11.1850 C.3   162  CYS162      0.1712
     28  C         16.1480   22.6620   11.1430 C.2   162  CYS162      0.2296
     29  O         16.6670   21.7560   11.8140 O.2   162  CYS162     -0.2864
     30  CB        16.8800   24.4410   12.6730 C.3   162  CYS162      0.0983
     31  SG        17.9130   25.9110   12.9150 S.3   162  CYS162     -0.0798
     32  N         25.4460   23.4310    5.6170 N.3   190  GLU190     -0.1245
     33  CA        25.2490   24.8250    5.9810 C.3   190  GLU190      0.1567
     34  C         26.5850   25.5040    6.2600 C.2   190  GLU190      0.2260
     35  O         27.5220   24.9030    6.7720 O.2   190  GLU190     -0.2867
     36  CB        24.3130   24.9730    7.1860 C.3   190  GLU190      0.0388
     37  CG        23.7600   26.3910    7.3290 C.3   190  GLU190      0.1160
     38  CD        22.4200   26.6070    6.6620 C.2   190  GLU190      0.3649
     39  OE1       22.3120   27.4790    5.7750 O.co2 190  GLU190     -0.2457
     40  OE2       21.4230   25.9210    6.9840 O.co2 190  GLU190     -0.2457
     41  N         26.7690   29.3320    7.4860 N.3   192  ALA192     -0.1245
     42  CA        26.2180   30.6510    7.7450 C.3   192  ALA192      0.1562
     43  C         27.1250   31.4710    8.6330 C.2   192  ALA192      0.2260
     44  O         26.7650   32.6180    8.9710 O.2   192  ALA192     -0.2867
     45  CB        24.8200   30.5560    8.3510 C.3   192  ALA192      0.0290
     46  N         26.6010   38.5750    7.7440 N.3   196  LEU196     -0.1231
     47  CA        25.1560   38.6310    7.6910 C.3   196  LEU196      0.1693
     48  C         24.4710   37.5490    8.5040 C.2   196  LEU196      0.2592
     49  O         23.3910   37.7810    9.0570 O.2   196  LEU196     -0.2718
     50  CB        24.6960   38.5500    6.2350 C.3   196  LEU196      0.0284
     51  CG        23.5300   39.4170    5.7810 C.3   196  LEU196      0.0019
     52  CD1       23.7810   40.8780    6.0830 C.3   196  LEU196      0.0001
     53  CD2       23.2830   39.1970    4.2900 C.3   196  LEU196      0.0001
     54  N         25.0690   36.3660    8.5790 N.am  197  GLY197     -0.1957
     55  CA        24.4700   35.2810    9.3560 C.3   197  GLY197      0.1869
     56  C         24.7390   35.5060   10.8390 C.2   197  GLY197      0.2309
     57  O         23.8740   35.2510   11.6810 O.2   197  GLY197     -0.2863
     58  N         22.8850   38.9740   11.6150 N.3   200  GLY200     -0.1210
     59  CA        21.4780   38.6930   11.5460 C.3   200  GLY200      0.1956
     60  C         20.8890   37.9810   12.7380 C.2   200  GLY200      0.2611
     61  O         19.8490   38.4180   13.2590 O.2   200  GLY200     -0.2717
     62  N         21.5040   36.8910   13.2040 N.am  201  PHE201     -0.1976
     63  CA        20.9750   36.1980   14.3780 C.3   201  PHE201      0.1639
     64  C         21.2370   37.0410   15.6270 C.2   201  PHE201      0.2290
     65  O         20.5090   36.9590   16.6080 O.2   201  PHE201     -0.2864
     66  CB        21.5800   34.8110   14.5510 C.3   201  PHE201      0.0560
     67  CG        20.9430   33.7110   13.7520 C.ar  201  PHE201     -0.0200
     68  CD1       21.6430   33.0730   12.7380 C.ar  201  PHE201     -0.0042
     69  CD2       19.6320   33.3320   13.9960 C.ar  201  PHE201     -0.0042
     70  CE1       21.0510   32.0760   11.9910 C.ar  201  PHE201     -0.0003
     71  CE2       19.0380   32.3200   13.2670 C.ar  201  PHE201     -0.0003
     72  CZ        19.7520   31.6950   12.2570 C.ar  201  PHE201     -0.0000
     73  N         21.7540   30.1470   21.3300 N.3   228  PHE228     -0.1241
     74  CA        22.4120   29.0270   20.6660 C.3   228  PHE228      0.1605
     75  C         23.7720   29.4880   20.1590 C.2   228  PHE228      0.2264
     76  O         24.0770   30.6720   20.1620 O.2   228  PHE228     -0.2867
     77  CB        21.5500   28.4130   19.5910 C.3   228  PHE228      0.0534
     78  CG        21.3270   29.1420   18.3160 C.ar  228  PHE228     -0.0203
     79  CD1       22.2360   29.0690   17.2750 C.ar  228  PHE228     -0.0042
     80  CD2       20.1910   29.9200   18.1310 C.ar  228  PHE228     -0.0042
     81  CE1       22.0250   29.7590   16.0870 C.ar  228  PHE228     -0.0003
     82  CE2       19.9690   30.6050   16.9440 C.ar  228  PHE228     -0.0003
     83  CZ        20.8940   30.5170   15.9280 C.ar  228  PHE228     -0.0000
     84  N          9.2060   32.5540   15.3180 N.3   269  THR269     -0.1218
     85  CA        10.5440   32.1420   15.7380 C.3   269  THR269      0.1862
     86  C         10.4910   31.3860   17.0610 C.2   269  THR269      0.2287
     87  O         11.2620   30.4610   17.2860 O.2   269  THR269     -0.2866
     88  CB        11.5000   33.3360   15.9090 C.3   269  THR269      0.1770
     89  OG1       10.8490   34.3780   16.6500 O.3   269  THR269     -0.2211
     90  CG2       11.9460   33.8500   14.5490 C.3   269  THR269      0.0375
     91  N         16.7470   18.5000   20.2010 N.3   302  HIS302     -0.1241
     92  CA        17.0010   19.6870   19.3820 C.3   302  HIS302      0.1621
     93  C         17.9060   20.6050   20.2250 C.2   302  HIS302      0.2264
     94  O         18.9440   21.0620   19.7770 O.2   302  HIS302     -0.2867
     95  CB        15.7190   20.3880   18.9760 C.3   302  HIS302      0.0745
     96  CG        15.9630   21.5700   18.0800 C.ar  302  HIS302      0.0817
     97  ND1       16.7400   21.4780   16.9420 N.ar  302  HIS302     -0.2268
     98  CD2       15.5520   22.8500   18.1600 C.ar  302  HIS302      0.1154
     99  CE1       16.7920   22.6600   16.3550 C.ar  302  HIS302      0.1986
    100  NE2       16.0840   23.5160   17.0840 N.ar  302  HIS302     -0.2212
    101  N         19.0160   23.5020   21.7040 N.3   304  THR304     -0.1218
    102  CA        19.9240   24.4860   21.1630 C.3   304  THR304      0.1862
    103  C         20.5260   25.4440   22.1600 C.2   304  THR304      0.2287
    104  O         21.2180   26.3740   21.7300 O.2   304  THR304     -0.2866
    105  CB        19.1670   25.3000   20.0730 C.3   304  THR304      0.1770
    106  OG1       18.1430   26.0790   20.7090 O.3   304  THR304     -0.2211
    107  CG2       18.5110   24.3570   19.0740 C.3   304  THR304      0.0375
    108  N         25.0780   24.7790   16.8050 N.3   339  HIS339     -0.1241
    109  CA        23.9110   24.5360   15.9680 C.3   339  HIS339      0.1621
    110  C         24.2570   24.5690   14.4930 C.2   339  HIS339      0.2264
    111  O         24.5000   25.6680   13.9730 O.2   339  HIS339     -0.2867
    112  CB        22.8580   25.6300   16.2480 C.3   339  HIS339      0.0745
    113  CG        21.4770   25.1880   15.8730 C.ar  339  HIS339      0.0817
    114  ND1       21.2540   24.2200   14.9150 N.ar  339  HIS339     -0.2268
    115  CD2       20.2580   25.5660   16.3190 C.ar  339  HIS339      0.1154
    116  CE1       19.9550   24.0140   14.7970 C.ar  339  HIS339      0.1986
    117  NE2       19.3320   24.8190   15.6400 N.ar  339  HIS339     -0.2212
    118  N         22.2350   24.5170   12.0050 N.3   341  LEU341     -0.1245
    119  CA        21.0910   24.9890   11.2210 C.3   341  LEU341      0.1561
    120  C         20.5590   23.9730   10.2400 C.2   341  LEU341      0.2260
    121  O         20.0950   22.8840   10.6520 O.2   341  LEU341     -0.2867
    122  CB        21.5370   26.2960   10.5390 C.3   341  LEU341      0.0270
    123  CG        22.1460   27.3190   11.5150 C.3   341  LEU341      0.0019
    124  CD1       22.7110   28.5190   10.7990 C.3   341  LEU341      0.0001
    125  CD2       21.0990   27.7640   12.5370 C.3   341  LEU341      0.0001
    126  N         13.7980   21.2200   15.3770 N.3   397  PHE397     -0.1227
    127  CA        12.6300   22.1160   15.2620 C.3   397  PHE397      0.1736
    128  C         13.0710   23.3700   14.5250 C.2   397  PHE397      0.2596
    129  O         14.2950   23.5550   14.4170 O.2   397  PHE397     -0.2718
    130  CB        12.0060   22.4170   16.6130 C.3   397  PHE397      0.0547
    131  CG        11.8170   21.2300   17.5220 C.ar  397  PHE397     -0.0202
    132  CD1       12.2950   21.2640   18.8180 C.ar  397  PHE397     -0.0042
    133  CD2       11.1740   20.0840   17.0960 C.ar  397  PHE397     -0.0042
    134  CE1       12.1630   20.1730   19.6510 C.ar  397  PHE397     -0.0003
    135  CE2       11.0730   18.9760   17.8970 C.ar  397  PHE397     -0.0003
    136  CZ        11.5560   19.0130   19.1880 C.ar  397  PHE397     -0.0000
    137  N         12.1920   24.1820   13.9500 N.am  398  GLY398     -0.1942
    138  CA        12.6350   25.3410   13.1980 C.3   398  GLY398      0.2014
    139  C         11.6520   26.4910   13.0790 C.2   398  GLY398      0.2638
    140  O         10.4450   26.3780   13.2850 O.2   398  GLY398     -0.2714
    141  N         12.1880   27.6580   12.7450 N.am  399  PHE399     -0.1973
    142  CA        11.4820   28.8990   12.5290 C.3   399  PHE399      0.1639
    143  C         10.2590   28.6290   11.6510 C.2   399  PHE399      0.2290
    144  O         10.3540   27.9710   10.6160 O.2   399  PHE399     -0.2864
    145  CB        12.3870   29.9220   11.8500 C.3   399  PHE399      0.0560
    146  CG        13.3060   30.7180   12.7180 C.ar  399  PHE399     -0.0200
    147  CD1       13.5330   30.4240   14.0550 C.ar  399  PHE399     -0.0042
    148  CD2       13.9740   31.8130   12.1700 C.ar  399  PHE399     -0.0042
    149  CE1       14.3850   31.1880   14.8260 C.ar  399  PHE399     -0.0003
    150  CE2       14.8060   32.6000   12.9400 C.ar  399  PHE399     -0.0003
    151  CZ        15.0180   32.2760   14.2700 C.ar  399  PHE399     -0.0000
@<TRIPOS>BOND
     1    16    15    2
     2     8     7    2
     3    13    14    1
     4    15    14    1
     5    14    17    1
     6     7     6    1
     7    20    18    1
     8     6     5    1
     9     6     9    1
    10    17    18    1
    11    10    12    1
    12    10     9    1
    13    18    19    1
    14    53    51    1
    15     4     3    2
    16     5     3   am
    17     9    11    1
    18     3     2    1
    19     1     2    1
    20    32    33    1
    21    39    38   ar
    22    51    52    1
    23    51    50    1
    24    33    34    1
    25    33    36    1
    26    50    47    1
    27    34    35    2
    28    38    40   ar
    29    38    37    1
    30    36    37    1
    31    21    22    1
    32    41    42    1
    33    47    46    1
    34    47    48    1
    35    42    45    1
    36    42    43    1
    37    22    23    1
    38    22    25    1
    39    24    23    2
    40    48    54   am
    41    48    49    2
    42    54    55    1
    43    43    44    2
    44    23    26   am
    45    55    56    1
    46   120   121    2
    47   120   119    1
    48    26    27    1
    49   122   119    1
    50   122   123    1
    51   144   143    2
    52   124   123    1
    53    56    57    2
    54    28    27    1
    55    28    29    2
    56    27    30    1
    57   119   118    1
    58   123   125    1
    59    59    58    1
    60    59    60    1
    61   143   142    1
    62   145   142    1
    63   145   146    1
    64    70    72   ar
    65    70    68   ar
    66   148   146   ar
    67   148   150   ar
    68    72    71   ar
    69   142   141    1
    70    30    31    1
    71   146   147   ar
    72    68    67   ar
    73    60    62   am
    74    60    61    2
    75   141   139   am
    76   150   151   ar
    77   139   138    1
    78   139   140    2
    79   138   137    1
    80    62    63    1
    81    71    69   ar
    82    67    69   ar
    83    67    66    1
    84   137   128   am
    85   111   110    2
    86   147   149   ar
    87   151   149   ar
    88    63    66    1
    89    63    64    1
    90   129   128    2
    91   110   109    1
    92   128   127    1
    93    90    88    1
    94   116   114   ar
    95   116   117   ar
    96   114   113   ar
    97   127   126    1
    98   127   130    1
    99    84    85    1
   100    64    65    2
   101   117   115   ar
   102    85    88    1
   103    85    86    1
   104   113   112    1
   105   113   115   ar
   106    88    89    1
   107    83    81   ar
   108    83    82   ar
   109   109   112    1
   110   109   108    1
   111    81    79   ar
   112    99    97   ar
   113    99   100   ar
   114   130   131    1
   115    97    96   ar
   116    82    80   ar
   117    86    87    2
   118   100    98   ar
   119   133   131   ar
   120   133   135   ar
   121    79    78   ar
   122   131   132   ar
   123   135   136   ar
   124    96    98   ar
   125    96    95    1
   126    80    78   ar
   127    78    77    1
   128   132   134   ar
   129    95    92    1
   130   107   105    1
   131   136   134   ar
   132    92    91    1
   133    92    93    1
   134    77    74    1
   135    94    93    2
   136   105   106    1
   137   105   102    1
   138    75    76    2
   139    75    74    1
   140    74    73    1
   141   102   101    1
   142   102   103    1
   143   104   103    2
