@<TRIPOS>MOLECULE
tmp/1b3oA01.pdb
 126 121 0 0 0
SMALL
GASTEIGER

@<TRIPOS>ATOM
      1  N         -4.2940   31.1880    5.0890 N.3    60  PRO60      -0.2116
      2  CA        -5.3740   31.9330    5.7170 C.3    60  PRO60       0.1372
      3  C         -6.1350   30.9110    6.5470 C.2    60  PRO60       0.2244
      4  O         -7.2030   30.4590    6.1470 O.2    60  PRO60      -0.2868
      5  CB        -6.2020   32.4010    4.5260 C.3    60  PRO60       0.0268
      6  CG        -5.2290   32.3190    3.3700 C.3    60  PRO60       0.0207
      7  CD        -4.6220   30.9960    3.6710 C.3    60  PRO60       0.0892
      8  N        -10.1250   34.9290    7.6640 N.3    84  HIS84      -0.1241
      9  CA       -11.3570   35.6870    7.8500 C.3    84  HIS84       0.1621
     10  C        -12.3880   34.9260    8.6750 C.2    84  HIS84       0.2264
     11  O        -13.5820   34.9430    8.3870 O.2    84  HIS84      -0.2867
     12  CB       -11.9670   36.0440    6.5030 C.3    84  HIS84       0.0745
     13  CG       -12.3390   34.8570    5.6820 C.ar   84  HIS84       0.0817
     14  ND1      -13.1450   34.9430    4.5680 N.ar   84  HIS84      -0.2268
     15  CD2      -12.0040   33.5500    5.8050 C.ar   84  HIS84       0.1154
     16  CE1      -13.2940   33.7430    4.0430 C.ar   84  HIS84       0.1986
     17  NE2      -12.6130   32.8800    4.7720 N.ar   84  HIS84      -0.2212
     18  N        -14.6000   36.2740    1.8350 N.3   120  GLY120     -0.1210
     19  CA       -15.5650   35.4570    1.1120 C.3   120  GLY120      0.1956
     20  C        -16.0430   36.0810   -0.1890 C.2   120  GLY120      0.2613
     21  O        -15.5530   37.1250   -0.6040 O.2   120  GLY120     -0.2717
     22  N        -17.0150   35.4520   -0.8330 N.am  121  THR121     -0.1938
     23  CA       -17.5280   35.9570   -2.0990 C.3   121  THR121      0.2028
     24  C        -18.9990   36.3780   -2.0400 C.2   121  THR121      0.2642
     25  O        -19.6670   36.5280   -3.0800 O.2   121  THR121     -0.2714
     26  CB       -17.3540   34.8810   -3.2150 C.3   121  THR121      0.1808
     27  OG1      -17.8850   33.6280   -2.7560 O.3   121  THR121     -0.2208
     28  CG2      -15.8810   34.6900   -3.5680 C.3   121  THR121      0.0379
     29  N        -19.4940   36.5690   -0.8170 N.am  122  HIS122     -0.1959
     30  CA       -20.8790   36.9860   -0.5550 C.3   122  HIS122      0.1787
     31  C        -20.9230   38.4920   -0.3440 C.2   122  HIS122      0.2620
     32  O        -19.8920   39.1390   -0.1660 O.2   122  HIS122     -0.2715
     33  CB       -21.3920   36.3580    0.7370 C.3   122  HIS122      0.0785
     34  CG       -21.5030   34.8660    0.7060 C.ar  122  HIS122      0.0821
     35  ND1      -22.7020   34.2160    0.4980 N.ar  122  HIS122     -0.2267
     36  CD2      -20.5820   33.8970    0.9390 C.ar  122  HIS122      0.1154
     37  CE1      -22.5170   32.9110    0.6170 C.ar  122  HIS122      0.1986
     38  NE2      -21.2410   32.6910    0.8810 N.ar  122  HIS122     -0.2212
     39  N        -22.1360   39.0280   -0.3190 N.am  123  GLU123     -0.1977
     40  CA       -22.3600   40.4420   -0.0970 C.3   123  GLU123      0.1602
     41  C        -21.6200   40.9680    1.1080 C.2   123  GLU123      0.2287
     42  O        -20.7320   41.8120    0.9950 O.2   123  GLU123     -0.2864
     43  CB       -23.8320   40.6920    0.1480 C.3   123  GLU123      0.0415
     44  CG       -24.6820   40.4340   -1.0380 C.3   123  GLU123      0.1163
     45  CD       -24.1840   41.2210   -2.2170 C.2   123  GLU123      0.3649
     46  OE1      -23.8950   42.4310   -2.0130 O.co2 123  GLU123     -0.2457
     47  OE2      -24.0860   40.6400   -3.3320 O.co2 123  GLU123     -0.2457
     48  N        -11.2000   33.3910   -0.8910 N.3   143  ASP143     -0.1225
     49  CA       -11.0710   32.0920   -0.2420 C.3   143  ASP143      0.1805
     50  C        -12.1970   31.0430   -0.3170 C.2   143  ASP143      0.2598
     51  O        -13.0670   30.9960    0.5450 O.2   143  ASP143     -0.2718
     52  CB       -10.6890   32.3860    1.2050 C.3   143  ASP143      0.1424
     53  CG       -10.6950   31.1730    2.0670 C.2   143  ASP143      0.3668
     54  OD1      -10.0540   30.1700    1.6940 O.co2 143  ASP143     -0.2456
     55  OD2      -11.3330   31.2350    3.1360 O.co2 143  ASP143     -0.2456
     56  N        -12.1450   30.1830   -1.3350 N.am  144  SER144     -0.1938
     57  CA       -13.1460   29.1290   -1.5390 C.3   144  SER144      0.2055
     58  C        -12.5740   27.7700   -1.9470 C.2   144  SER144      0.2644
     59  O        -11.5590   27.6910   -2.6460 O.2   144  SER144     -0.2714
     60  CB       -14.1300   29.5350   -2.6180 C.3   144  SER144      0.2130
     61  OG       -14.8930   28.4020   -2.9920 O.3   144  SER144     -0.2179
     62  N        -13.2550   26.7020   -1.5430 N.am  145  SER145     -0.1935
     63  CA       -12.8140   25.3520   -1.8680 C.3   145  SER145      0.2055
     64  C        -12.9160   25.0910   -3.3630 C.2   145  SER145      0.2642
     65  O        -12.1490   24.3160   -3.9110 O.2   145  SER145     -0.2714
     66  CB       -13.6500   24.3170   -1.1130 C.3   145  SER145      0.2130
     67  OG       -14.9730   24.2410   -1.6210 O.3   145  SER145     -0.2179
     68  N        -13.8700   25.7390   -4.0160 N.am  146  GLN146     -0.1976
     69  CA       -14.0760   25.5740   -5.4480 C.3   146  GLN146      0.1601
     70  C        -14.3060   26.9960   -5.9150 C.2   146  GLN146      0.2287
     71  O        -15.2110   27.6600   -5.4230 O.2   146  GLN146     -0.2864
     72  CB       -15.3130   24.7090   -5.6920 C.3   146  GLN146      0.0394
     73  CG       -15.3560   23.9210   -6.9980 C.3   146  GLN146      0.0908
     74  CD       -15.4370   24.7700   -8.2370 C.2   146  GLN146      0.2608
     75  OE1      -15.5880   24.2570   -9.3400 O.2   146  GLN146     -0.2717
     76  NE2      -15.3320   26.0710   -8.0680 N.am  146  GLN146     -0.0878
     77  N        -20.3270   33.4760   -8.5690 N.3   151  PHE151     -0.1241
     78  CA       -20.2010   34.2900   -7.3810 C.3   151  PHE151      0.1605
     79  C        -18.7650   34.7680   -7.1740 C.2   151  PHE151      0.2264
     80  O        -18.5130   35.6760   -6.3840 O.2   151  PHE151     -0.2867
     81  CB       -20.6520   33.5000   -6.1600 C.3   151  PHE151      0.0534
     82  CG       -21.9710   32.8310   -6.3420 C.ar  151  PHE151     -0.0203
     83  CD1      -23.0660   33.5510   -6.7950 C.ar  151  PHE151     -0.0042
     84  CD2      -22.1160   31.4730   -6.0850 C.ar  151  PHE151     -0.0042
     85  CE1      -24.2870   32.9360   -6.9950 C.ar  151  PHE151     -0.0003
     86  CE2      -23.3300   30.8430   -6.2800 C.ar  151  PHE151     -0.0003
     87  CZ       -24.4230   31.5810   -6.7400 C.ar  151  PHE151     -0.0000
     88  N         -9.5910   28.4880   -5.0350 N.3   172  ASN172     -0.1240
     89  CA        -9.0330   27.1740   -5.4410 C.3   172  ASN172      0.1653
     90  C         -9.5320   26.3980   -6.6680 C.2   172  ASN172      0.2266
     91  O        -10.6780   25.9640   -6.7240 O.2   172  ASN172     -0.2867
     92  CB        -9.0230   26.2160   -4.2430 C.3   172  ASN172      0.1155
     93  CG        -7.9280   26.5420   -3.2490 C.2   172  ASN172      0.2627
     94  OD1       -7.8300   27.6620   -2.7750 O.2   172  ASN172     -0.2716
     95  ND2       -7.1040   25.5590   -2.9220 N.am  172  ASN172     -0.0877
     96  N         -4.8150   30.1740   -7.0980 N.3   191  ARG191     -0.1245
     97  CA        -4.5330   29.2880   -5.9810 C.3   191  ARG191      0.1563
     98  C         -4.9620   27.8940   -6.4000 C.2   191  ARG191      0.2260
     99  O         -6.1550   27.6290   -6.5210 O.2   191  ARG191     -0.2867
    100  CB        -5.3380   29.7620   -4.7810 C.3   191  ARG191      0.0307
    101  CG        -4.8210   29.3050   -3.4510 C.3   191  ARG191      0.0489
    102  CD        -5.7540   29.7680   -2.3660 C.3   191  ARG191      0.2205
    103  NE        -5.3540   29.2820   -1.0580 N.pl3 191  ARG191     -0.0865
    104  CZ        -6.1170   29.3780    0.0220 C.cat 191  ARG191      0.5346
    105  NH1       -7.3120   29.9380   -0.0640 N.pl3 191  ARG191      0.1354
    106  NH2       -5.6870   28.9250    1.1920 N.pl3 191  ARG191      0.1354
    107  N         -5.4260   23.8100   -5.9050 N.3   193  GLY193     -0.1210
    108  CA        -5.5410   22.7650   -4.8980 C.3   193  GLY193      0.1956
    109  C         -6.9630   22.4140   -4.5030 C.2   193  GLY193      0.2611
    110  O         -7.7480   23.2940   -4.1820 O.2   193  GLY193     -0.2717
    111  N         -7.3070   21.1290   -4.5310 N.am  194  MET194     -0.1979
    112  CA        -8.6450   20.6760   -4.1320 C.3   194  MET194      0.1605
    113  C         -8.6840   19.1890   -3.8080 C.2   194  MET194      0.2287
    114  O         -8.9600   18.3680   -4.6660 O.2   194  MET194     -0.2864
    115  CB        -9.6770   20.9360   -5.2170 C.3   194  MET194      0.0413
    116  CG       -11.0640   20.5350   -4.7630 C.3   194  MET194      0.0598
    117  SD       -12.3060   20.6690   -6.0160 S.3   194  MET194     -0.1393
    118  CE       -13.7560   20.5550   -5.0280 C.3   194  MET194      0.0692
    119  N         -1.1780   25.2030   -3.4580 N.3   220  ASP220     -0.1239
    120  CA        -1.8120   25.1620   -2.1510 C.3   220  ASP220      0.1674
    121  C         -2.2480   23.7700   -1.6460 C.2   220  ASP220      0.2266
    122  O         -3.1050   23.1010   -2.2440 O.2   220  ASP220     -0.2867
    123  CB        -2.9900   26.1440   -2.1890 C.3   220  ASP220      0.1410
    124  CG        -3.6690   26.3140   -0.8490 C.2   220  ASP220      0.3668
    125  OD1       -2.9450   26.5450    0.1340 O.co2 220  ASP220     -0.2456
    126  OD2       -4.9210   26.2440   -0.7870 O.co2 220  ASP220     -0.2456
@<TRIPOS>BOND
     1    75    74    2
     2    77    78    1
     3    74    76   am
     4    74    73    1
     5    78    79    1
     6    78    81    1
     7    79    80    2
     8    96    97    1
     9    73    72    1
    10    85    83   ar
    11    85    87   ar
    12    83    82   ar
    13    87    86   ar
    14    91    90    2
    15    90    89    1
    16    99    98    2
    17    98    97    1
    18    82    81    1
    19    82    84   ar
    20    86    84   ar
    21   117   118    1
    22   117   116    1
    23    97   100    1
    24    70    69    1
    25    70    71    2
    26   107   108    1
    27    72    69    1
    28    69    68    1
    29    89    88    1
    30    89    92    1
    31   115   116    1
    32   115   112    1
    33   108   109    1
    34   100   101    1
    35   114   113    2
    36   111   109   am
    37   111   112    1
    38   109   110    2
    39    92    93    1
    40   112   113    1
    41    68    64   am
    42    65    64    2
    43    28    26    1
    44   119   120    1
    45   101   102    1
    46    64    63    1
    47    47    45   ar
    48    93    95   am
    49    93    94    2
    50    26    27    1
    51    26    23    1
    52    25    24    2
    53    61    60    1
    54    59    58    2
    55    60    57    1
    56   102   103    1
    57   122   121    2
    58    45    46   ar
    59    45    44    1
    60   123   120    1
    61   123   124    1
    62   120   121    1
    63    23    24    1
    64    23    22    1
    65    24    29   am
    66    58    62   am
    67    58    57    1
    68    63    62    1
    69    63    66    1
    70    67    66    1
    71    57    56    1
    72    56    50   am
    73   103   104    2
    74    44    43    1
    75    48    49    1
    76   124   126   ar
    77   124   125   ar
    78    22    20   am
    79    29    30    1
    80    21    20    2
    81    30    31    1
    82    30    33    1
    83    31    39   am
    84    31    32    2
    85    39    40    1
    86    50    49    1
    87    50    51    2
    88    49    52    1
    89    20    19    1
    90    40    43    1
    91    40    41    1
    92   105   104    1
    93   104   106    1
    94    35    37   ar
    95    35    34   ar
    96    37    38   ar
    97    34    33    1
    98    34    36   ar
    99    38    36   ar
   100    42    41    2
   101    19    18    1
   102    52    53    1
   103    54    53   ar
   104    53    55   ar
   105     6     7    1
   106     6     5    1
   107     7     1    1
   108    16    14   ar
   109    16    17   ar
   110     5     2    1
   111    14    13   ar
   112    17    15   ar
   113     1     2    1
   114    13    15   ar
   115    13    12    1
   116     2     3    1
   117     4     3    2
   118    12     9    1
   119     8     9    1
   120     9    10    1
   121    11    10    2
