@<TRIPOS>MOLECULE
tmp/1b3oB01.pdb
 156 148 0 0 0
SMALL
GASTEIGER

@<TRIPOS>ATOM
      1  N         28.7300  -22.4740  -59.1880 N.3    84  HIS84      -0.1241
      2  CA        29.0150  -23.8910  -59.3400 C.3    84  HIS84       0.1621
      3  C         27.9200  -24.5540  -60.1550 C.2    84  HIS84       0.2264
      4  O         27.4390  -25.6380  -59.8250 O.2    84  HIS84      -0.2867
      5  CB        29.1200  -24.5930  -57.9940 C.3    84  HIS84       0.0745
      6  CG        27.8920  -24.4840  -57.1570 C.ar   84  HIS84       0.0817
      7  ND1       27.6510  -25.3180  -56.0860 N.ar   84  HIS84      -0.2268
      8  CD2       26.8710  -23.5970  -57.1850 C.ar   84  HIS84       0.1154
      9  CE1       26.5340  -24.9490  -55.4880 C.ar   84  HIS84       0.1986
     10  NE2       26.0410  -23.9070  -56.1350 N.ar   84  HIS84      -0.2212
     11  N         28.3640  -27.0540  -53.2410 N.3   214  GLY214     -0.1210
     12  CA        27.2050  -27.6380  -52.5710 C.3   214  GLY214      0.1956
     13  C         27.5940  -28.2920  -51.2550 C.2   214  GLY214      0.2613
     14  O         28.7200  -28.1270  -50.7880 O.2   214  GLY214     -0.2717
     15  N         26.6910  -29.0560  -50.6550 N.am  215  THR215     -0.1938
     16  CA        27.0150  -29.6850  -49.3870 C.3   215  THR215      0.2028
     17  C         26.8020  -31.1890  -49.4530 C.2   215  THR215      0.2642
     18  O         26.6110  -31.8420  -48.4190 O.2   215  THR215     -0.2714
     19  CB        26.1340  -29.1830  -48.2620 C.3   215  THR215      0.1808
     20  OG1       24.8650  -29.8300  -48.3750 O.3   215  THR215     -0.2208
     21  CG2       25.9320  -27.6610  -48.3340 C.3   215  THR215      0.0379
     22  N         26.7930  -31.7370  -50.6640 N.am  216  HIS216     -0.1959
     23  CA        26.6300  -33.1750  -50.8350 C.3   216  HIS216      0.1787
     24  C         28.0260  -33.7150  -51.1080 C.2   216  HIS216      0.2620
     25  O         28.9640  -32.9550  -51.4170 O.2   216  HIS216     -0.2715
     26  CB        25.7570  -33.5390  -52.0390 C.3   216  HIS216      0.0785
     27  CG        24.4590  -32.8050  -52.1180 C.ar  216  HIS216      0.0821
     28  ND1       23.2850  -33.4330  -52.4800 N.ar  216  HIS216     -0.2267
     29  CD2       24.1590  -31.4870  -51.9980 C.ar  216  HIS216      0.1154
     30  CE1       22.3180  -32.5360  -52.5820 C.ar  216  HIS216      0.1986
     31  NE2       22.8210  -31.3460  -52.2950 N.ar  216  HIS216     -0.2212
     32  N         28.1370  -35.0360  -51.0210 N.am  217  GLU217     -0.1977
     33  CA        29.3710  -35.7520  -51.2520 C.3   217  GLU217      0.1602
     34  C         30.1520  -35.3450  -52.4740 C.2   217  GLU217      0.2287
     35  O         31.3070  -34.9430  -52.3550 O.2   217  GLU217     -0.2864
     36  CB        29.0870  -37.2390  -51.3140 C.3   217  GLU217      0.0415
     37  CG        28.7820  -37.8200  -49.9590 C.3   217  GLU217      0.1163
     38  CD        29.8990  -37.5380  -48.9670 C.2   217  GLU217      0.3649
     39  OE1       31.0730  -37.8990  -49.2620 O.co2 217  GLU217     -0.2457
     40  OE2       29.5960  -36.9550  -47.8970 O.co2 217  GLU217     -0.2457
     41  N         26.8690  -22.8890  -50.5860 N.3   237  ASP237     -0.1225
     42  CA        25.7190  -22.2980  -51.2650 C.3   237  ASP237      0.1805
     43  C         24.4030  -23.0470  -51.0310 C.2   237  ASP237      0.2598
     44  O         24.2210  -24.1630  -51.5000 O.2   237  ASP237     -0.2718
     45  CB        26.0540  -22.2420  -52.7520 C.3   237  ASP237      0.1424
     46  CG        25.0830  -21.4240  -53.5400 C.2   237  ASP237      0.3668
     47  OD1       24.4790  -20.4990  -52.9500 O.co2 237  ASP237     -0.2456
     48  OD2       24.9620  -21.6830  -54.7590 O.co2 237  ASP237     -0.2456
     49  N         23.4810  -22.4300  -50.3030 N.am  238  SER238     -0.1938
     50  CA        22.2040  -23.0700  -50.0030 C.3   238  SER238      0.2055
     51  C         21.1520  -22.0850  -49.5320 C.2   238  SER238      0.2644
     52  O         21.4540  -21.1810  -48.7550 O.2   238  SER238     -0.2714
     53  CB        22.3830  -24.1480  -48.9380 C.3   238  SER238      0.2130
     54  OG        21.1280  -24.7140  -48.6110 O.3   238  SER238     -0.2179
     55  N         19.9140  -22.2800  -49.9810 N.am  239  SER239     -0.1935
     56  CA        18.8160  -21.3850  -49.6220 C.3   239  SER239      0.2055
     57  C         18.3750  -21.5300  -48.1670 C.2   239  SER239      0.2642
     58  O         17.5120  -20.7990  -47.6950 O.2   239  SER239     -0.2714
     59  CB        17.6100  -21.6090  -50.5510 C.3   239  SER239      0.2130
     60  OG        17.0160  -22.8820  -50.3860 O.3   239  SER239     -0.2179
     61  N         18.9590  -22.4700  -47.4460 N.am  240  GLN240     -0.1976
     62  CA        18.5890  -22.6400  -46.0520 C.3   240  GLN240      0.1601
     63  C         19.7760  -23.3980  -45.4690 C.2   240  GLN240      0.2287
     64  O         19.9380  -24.5920  -45.7070 O.2   240  GLN240     -0.2864
     65  CB        17.2960  -23.4530  -45.9580 C.3   240  GLN240      0.0394
     66  CG        16.4350  -23.1800  -44.7390 C.3   240  GLN240      0.0908
     67  CD        17.0670  -23.6060  -43.4450 C.2   240  GLN240      0.2608
     68  OE1       16.4780  -23.4710  -42.3830 O.2   240  GLN240     -0.2717
     69  NE2       18.2710  -24.1280  -43.5240 N.am  240  GLN240     -0.0878
     70  N         23.5400  -31.2880  -42.8910 N.3   245  PHE245     -0.1241
     71  CA        24.3570  -31.4620  -44.0680 C.3   245  PHE245      0.1605
     72  C         25.4090  -30.3770  -44.1710 C.2   245  PHE245      0.2264
     73  O         26.5070  -30.6280  -44.6360 O.2   245  PHE245     -0.2867
     74  CB        23.4730  -31.4650  -45.3050 C.3   245  PHE245      0.0534
     75  CG        22.3860  -32.4840  -45.2380 C.ar  245  PHE245     -0.0203
     76  CD1       22.6940  -33.8300  -45.0930 C.ar  245  PHE245     -0.0042
     77  CD2       21.0500  -32.1030  -45.2390 C.ar  245  PHE245     -0.0042
     78  CE1       21.6920  -34.7850  -44.9400 C.ar  245  PHE245     -0.0003
     79  CE2       20.0340  -33.0550  -45.0850 C.ar  245  PHE245     -0.0003
     80  CZ        20.3600  -34.3950  -44.9350 C.ar  245  PHE245     -0.0000
     81  N         22.8260  -19.6640  -46.4150 N.3   266  ASN266     -0.1240
     82  CA        21.9370  -18.5570  -46.0110 C.3   266  ASN266      0.1653
     83  C         21.0450  -18.7350  -44.7720 C.2   266  ASN266      0.2266
     84  O         20.2890  -19.7020  -44.6470 O.2   266  ASN266     -0.2867
     85  CB        21.0750  -18.0880  -47.1920 C.3   266  ASN266      0.1155
     86  CG        21.8870  -17.3850  -48.2670 C.2   266  ASN266      0.2627
     87  OD1       22.7970  -17.9630  -48.8550 O.2   266  ASN266     -0.2716
     88  ND2       21.5590  -16.1260  -48.5260 N.am  266  ASN266     -0.0877
     89  N         26.2170  -15.6410  -44.4020 N.3   285  ARG285     -0.1245
     90  CA        25.4990  -15.0940  -45.5440 C.3   285  ARG285      0.1563
     91  C         24.0260  -14.9860  -45.1350 C.2   285  ARG285      0.2260
     92  O         23.3260  -15.9940  -45.0190 O.2   285  ARG285     -0.2867
     93  CB        25.6540  -16.0580  -46.6930 C.3   285  ARG285      0.0307
     94  CG        25.3010  -15.5310  -48.0120 C.3   285  ARG285      0.0489
     95  CD        25.3610  -16.6850  -48.9480 C.3   285  ARG285      0.2205
     96  NE        25.1810  -16.3070  -50.3370 N.pl3 285  ARG285     -0.0865
     97  CZ        25.0020  -17.1880  -51.3120 C.cat 285  ARG285      0.5346
     98  NH1       24.9780  -18.4920  -51.0370 N.pl3 285  ARG285      0.1354
     99  NH2       24.8620  -16.7700  -52.5640 N.pl3 285  ARG285      0.1354
    100  N         20.1090  -13.8720  -45.6930 N.3   287  GLY287     -0.1210
    101  CA        19.1230  -13.5640  -46.7110 C.3   287  GLY287      0.1956
    102  C         18.2800  -14.7260  -47.2040 C.2   287  GLY287      0.2611
    103  O         18.7950  -15.6670  -47.8020 O.2   287  GLY287     -0.2717
    104  N         16.9730  -14.6550  -46.9690 N.am  288  MET288     -0.1979
    105  CA        16.0510  -15.7130  -47.3940 C.3   288  MET288      0.1605
    106  C         14.6550  -15.1770  -47.6810 C.2   288  MET288      0.2287
    107  O         13.8260  -15.0590  -46.7730 O.2   288  MET288     -0.2864
    108  CB        15.9290  -16.7940  -46.3220 C.3   288  MET288      0.0413
    109  CG        15.0660  -17.9640  -46.7650 C.3   288  MET288      0.0598
    110  SD        14.7200  -19.1940  -45.5040 S.3   288  MET288     -0.1393
    111  CE        13.8610  -20.4030  -46.4890 C.3   288  MET288      0.0692
    112  N         14.4840  -12.9940  -50.7020 N.3   290  SER290     -0.1217
    113  CA        14.8350  -11.7880  -51.3970 C.3   290  SER290      0.1889
    114  C         15.7590  -12.0990  -52.5250 C.2   290  SER290      0.2288
    115  O         16.1550  -13.2510  -52.7360 O.2   290  SER290     -0.2866
    116  CB        15.5070  -10.8160  -50.4370 C.3   290  SER290      0.2089
    117  OG        15.8950   -9.6500  -51.1380 O.3   290  SER290     -0.2183
    118  N         14.9270  -17.0560  -59.8180 N.3   294  CYS294     -0.1235
    119  CA        15.5020  -17.6730  -61.0150 C.3   294  CYS294      0.1677
    120  C         14.7980  -18.8320  -61.7240 C.2   294  CYS294      0.2270
    121  O         14.8200  -18.8490  -62.9720 O.2   294  CYS294     -0.2867
    122  CB        16.9740  -18.0410  -60.7480 C.3   294  CYS294      0.0956
    123  SG        17.2870  -18.8720  -59.1560 S.3   294  CYS294     -0.0801
    124  N         13.7960  -22.3380  -59.7840 N.3   296  THR296     -0.1203
    125  CA        13.4820  -23.4760  -58.9260 C.3   296  THR296      0.1994
    126  C         13.0190  -23.0360  -57.5280 C.2   296  THR296      0.2618
    127  O         13.1100  -23.8250  -56.5610 O.2   296  THR296     -0.2717
    128  CB        14.7220  -24.4300  -58.7740 C.3   296  THR296      0.1784
    129  OG1       15.2210  -24.7870  -60.0760 O.3   296  THR296     -0.2211
    130  CG2       14.3380  -25.7120  -58.0080 C.3   296  THR296      0.0376
    131  N         12.5160  -21.7970  -57.4200 N.am  297  GLN297     -0.1965
    132  CA        12.0620  -21.2800  -56.1220 C.3   297  GLN297      0.1733
    133  C         12.0240  -19.7450  -55.9680 C.2   297  GLN297      0.2616
    134  O         12.2710  -18.9690  -56.9050 O.2   297  GLN297     -0.2715
    135  CB        12.9860  -21.8000  -55.0170 C.3   297  GLN297      0.0408
    136  CG        14.4540  -21.4380  -55.2980 C.3   297  GLN297      0.0908
    137  CD        15.3810  -21.8010  -54.1500 C.2   297  GLN297      0.2608
    138  OE1       15.3350  -21.1840  -53.0710 O.2   297  GLN297     -0.2717
    139  NE2       16.2250  -22.8150  -54.3660 N.am  297  GLN297     -0.0878
    140  N         11.7160  -19.3600  -54.7280 N.am  298  GLU298     -0.1977
    141  CA        11.6570  -17.9870  -54.2170 C.3   298  GLU298      0.1602
    142  C         10.7120  -17.8870  -52.9990 C.2   298  GLU298      0.2287
    143  O         11.1650  -17.9200  -51.8450 O.2   298  GLU298     -0.2864
    144  CB        11.2770  -16.9440  -55.2900 C.3   298  GLU298      0.0415
    145  CG        11.5540  -15.5040  -54.7960 C.3   298  GLU298      0.1163
    146  CD        13.0550  -15.2480  -54.4740 C.2   298  GLU298      0.3649
    147  OE1       13.8420  -14.9820  -55.4220 O.co2 298  GLU298     -0.2457
    148  OE2       13.4520  -15.3290  -53.2790 O.co2 298  GLU298     -0.2457
    149  N         22.9860  -10.4450  -48.1250 N.3   327  ASP327     -0.1239
    150  CA        22.7170  -11.0300  -49.4300 C.3   327  ASP327      0.1674
    151  C         21.2980  -10.9620  -50.0080 C.2   327  ASP327      0.2266
    152  O         20.3860  -11.6480  -49.5350 O.2   327  ASP327     -0.2867
    153  CB        23.1600  -12.4820  -49.4030 C.3   327  ASP327      0.1410
    154  CG        22.9510  -13.1600  -50.7150 C.2   327  ASP327      0.3668
    155  OD1       23.4780  -12.6160  -51.7050 O.co2 327  ASP327     -0.2456
    156  OD2       22.2720  -14.2170  -50.7480 O.co2 327  ASP327     -0.2456
@<TRIPOS>BOND
     1   121   120    2
     2   120   119    1
     3   119   122    1
     4   119   118    1
     5   122   123    1
     6     3     4    2
     7     3     2    1
     8   129   128    1
     9   124   125    1
    10     2     1    1
    11     2     5    1
    12   125   128    1
    13   125   126    1
    14   128   130    1
    15     5     6    1
    16   126   131   am
    17   126   127    2
    18   131   132    1
    19     8     6   ar
    20     8    10   ar
    21     6     7   ar
    22   134   133    2
    23    10     9   ar
    24   132   133    1
    25   132   135    1
    26     7     9   ar
    27   133   140   am
    28   147   146   ar
    29   136   135    1
    30   136   137    1
    31   144   145    1
    32   144   141    1
    33   145   146    1
    34    48    46   ar
    35   140   141    1
    36   146   148   ar
    37   139   137   am
    38   141   142    1
    39   137   138    2
    40    46    47   ar
    41    46    45    1
    42    11    12    1
    43   142   143    2
    44    45    42    1
    45   115   114    2
    46    30    28   ar
    47    30    31   ar
    48    12    13    1
    49    99    97    1
    50   114   113    1
    51    28    27   ar
    52    34    35    2
    53    34    33    1
    54    31    29   ar
    55    27    26    1
    56    27    29   ar
    57    26    23    1
    58   155   154   ar
    59    44    43    2
    60    25    24    2
    61   113   112    1
    62   113   116    1
    63    36    33    1
    64    36    37    1
    65    97    98    1
    66    97    96    2
    67    42    43    1
    68    42    41    1
    69    13    14    2
    70    13    15   am
    71    33    32    1
    72   117   116    1
    73    24    32   am
    74    24    23    1
    75    43    49   am
    76    23    22    1
    77   156   154   ar
    78   154   153    1
    79    22    17   am
    80    15    16    1
    81    59    60    1
    82    59    56    1
    83    96    95    1
    84    49    50    1
    85   151   152    2
    86   151   150    1
    87    50    51    1
    88    50    53    1
    89    55    56    1
    90    55    51   am
    91    37    38    1
    92    56    57    1
    93    51    52    2
    94    17    16    1
    95    17    18    2
    96   150   153    1
    97   150   149    1
    98    16    19    1
    99    39    38   ar
   100    38    40   ar
   101    95    94    1
   102    53    54    1
   103    87    86    2
   104    88    86   am
   105    20    19    1
   106    21    19    1
   107    86    85    1
   108    57    58    2
   109    57    61   am
   110    94    93    1
   111   103   102    2
   112   106   105    1
   113   106   107    2
   114    61    62    1
   115   105   104    1
   116   105   108    1
   117   102   104   am
   118   102   101    1
   119    85    82    1
   120   109   108    1
   121   109   110    1
   122   101   100    1
   123    93    90    1
   124   111   110    1
   125    81    82    1
   126    62    65    1
   127    62    63    1
   128    82    83    1
   129    65    66    1
   130    64    63    2
   131    90    91    1
   132    90    89    1
   133    74    75    1
   134    74    71    1
   135    77    75   ar
   136    77    79   ar
   137    75    76   ar
   138    91    92    2
   139    76    78   ar
   140    79    80   ar
   141    78    80   ar
   142    83    84    2
   143    66    67    1
   144    73    72    2
   145    72    71    1
   146    71    70    1
   147    69    67   am
   148    67    68    2
