@<TRIPOS>MOLECULE
tmp/1b3wA00.pdb
 144 141 0 0 0
SMALL
GASTEIGER

@<TRIPOS>ATOM
      1  N         78.9960   51.0270   20.5770 N.3    46  GLU46      -0.1231
      2  CA        78.4580   49.6840   20.3940 C.3    46  GLU46       0.1699
      3  C         79.4230   48.6350   19.8090 C.2    46  GLU46       0.2592
      4  O         79.3320   47.4470   20.1470 O.2    46  GLU46      -0.2718
      5  CB        77.1830   49.7740   19.5660 C.3    46  GLU46       0.0402
      6  CG        76.4820   48.4600   19.4250 C.3    46  GLU46       0.1161
      7  CD        75.0640   48.5680   18.8580 C.2    46  GLU46       0.3649
      8  OE1       74.7140   49.6110   18.2470 O.co2  46  GLU46      -0.2457
      9  OE2       74.2820   47.6040   19.0400 O.co2  46  GLU46      -0.2457
     10  N         80.3310   49.0770   18.9350 N.am   47  ASN47      -0.1974
     11  CA        81.3060   48.1930   18.2880 C.3    47  ASN47       0.1688
     12  C         82.5890   48.8970   17.8150 C.2    47  ASN47       0.2292
     13  O         83.6180   48.2540   17.6530 O.2    47  ASN47      -0.2864
     14  CB        80.6890   47.5220   17.0560 C.3    47  ASN47       0.1181
     15  CG        79.7180   46.4130   17.3960 C.2    47  ASN47       0.2629
     16  OD1       80.1190   45.3070   17.7510 O.2    47  ASN47      -0.2716
     17  ND2       78.4390   46.6790   17.2060 N.am   47  ASN47      -0.0877
     18  N         86.1380   48.0590   19.6610 N.3    50  LYS50      -0.1245
     19  CA        86.5840   46.6860   19.8600 C.3    50  LYS50       0.1561
     20  C         87.8520   46.4190   19.0570 C.2    50  LYS50       0.2260
     21  O         88.1810   47.1560   18.1320 O.2    50  LYS50      -0.2867
     22  CB        85.4730   45.7070   19.5100 C.3    50  LYS50       0.0271
     23  CG        84.3120   45.8240   20.4610 C.3    50  LYS50       0.0035
     24  CD        83.0940   45.0970   19.9780 C.3    50  LYS50       0.0206
     25  CE        81.9200   45.3940   20.8830 C.3    50  LYS50       0.1093
     26  NZ        80.6610   44.7560   20.4140 N.3    50  LYS50      -0.1314
     27  N         84.9610   50.6090   25.3330 N.3    83  HIS83      -0.1241
     28  CA        84.5920   49.2210   25.3350 C.3    83  HIS83       0.1621
     29  C         84.9120   48.5710   24.0030 C.2    83  HIS83       0.2264
     30  O         84.3780   48.9720   22.9740 O.2    83  HIS83      -0.2867
     31  CB        83.0860   49.1590   25.6130 C.3    83  HIS83       0.0745
     32  CG        82.4780   47.8250   25.3350 C.ar   83  HIS83       0.0817
     33  ND1       82.4550   46.8120   26.2600 N.ar   83  HIS83      -0.2268
     34  CD2       81.8430   47.3610   24.2310 C.ar   83  HIS83       0.1154
     35  CE1       81.8310   45.7590   25.7390 C.ar   83  HIS83       0.1986
     36  NE2       81.4570   46.0700   24.5140 N.ar   83  HIS83      -0.2212
     37  N         89.3130   41.1330   25.0280 N.3    87  TRP87      -0.1241
     38  CA        88.1440   40.2710   24.9200 C.3    87  TRP87       0.1605
     39  C         88.5100   39.1640   23.9340 C.2    87  TRP87       0.2264
     40  O         89.3710   39.3430   23.0760 O.2    87  TRP87      -0.2867
     41  CB        86.9700   41.1170   24.3970 C.3    87  TRP87       0.0550
     42  CG        85.6060   40.4690   24.3920 C.ar   87  TRP87       0.0003
     43  CD1       85.1830   39.4300   25.1620 C.ar   87  TRP87       0.0946
     44  CD2       84.4790   40.8560   23.5880 C.ar   87  TRP87       0.0152
     45  NE1       83.8680   39.1420   24.8910 N.ar   87  TRP87      -0.2442
     46  CE2       83.4090   40.0030   23.9300 C.ar   87  TRP87       0.0810
     47  CE3       84.2710   41.8360   22.6100 C.ar   87  TRP87       0.0012
     48  CZ2       82.1450   40.1050   23.3330 C.ar   87  TRP87       0.0191
     49  CZ3       83.0150   41.9360   22.0180 C.ar   87  TRP87       0.0001
     50  CH2       81.9720   41.0750   22.3820 C.ar   87  TRP87       0.0015
     51  N         85.2640   39.0980   18.8240 N.3    90  GLN90      -0.1245
     52  CA        85.5040   40.2480   17.9510 C.3    90  GLN90       0.1566
     53  C         86.9760   40.6190   18.0650 C.2    90  GLN90       0.2260
     54  O         87.3470   41.7820   18.2580 O.2    90  GLN90      -0.2867
     55  CB        84.5570   41.4180   18.2860 C.3    90  GLN90       0.0367
     56  CG        83.1200   41.1870   17.7580 C.3    90  GLN90       0.0905
     57  CD        82.1500   42.3210   18.0600 C.2    90  GLN90       0.2608
     58  OE1       81.3980   42.2650   19.0280 O.2    90  GLN90      -0.2717
     59  NE2       82.1450   43.3360   17.2140 N.am   90  GLN90      -0.0878
     60  N         86.9630   41.9900   29.3470 N.3   130  ASN130     -0.1225
     61  CA        85.5700   41.6550   29.1000 C.3   130  ASN130      0.1785
     62  C         85.3880   40.1580   29.0350 C.2   130  ASN130      0.2597
     63  O         86.1750   39.4540   28.4030 O.2   130  ASN130     -0.2718
     64  CB        85.0760   42.2930   27.7970 C.3   130  ASN130      0.1169
     65  CG        83.5560   42.3940   27.7240 C.2   130  ASN130      0.2627
     66  OD1       82.8900   42.6700   28.7180 O.2   130  ASN130     -0.2716
     67  ND2       83.0080   42.2130   26.5320 N.am  130  ASN130     -0.0877
     68  N         84.3910   39.6800   29.7720 N.am  131  GLU131     -0.1979
     69  CA        84.0290   38.2730   29.8300 C.3   131  GLU131      0.1602
     70  C         85.1890   37.2950   29.9480 C.2   131  GLU131      0.2287
     71  O         85.3490   36.4290   29.0930 O.2   131  GLU131     -0.2864
     72  CB        83.1900   37.9260   28.6040 C.3   131  GLU131      0.0415
     73  CG        82.0690   38.9120   28.3460 C.3   131  GLU131      0.1163
     74  CD        81.3440   38.6560   27.0510 C.2   131  GLU131      0.3649
     75  OE1       81.8220   37.8670   26.2160 O.co2 131  GLU131     -0.2457
     76  OE2       80.2800   39.2500   26.8670 O.co2 131  GLU131     -0.2457
     77  N         78.9120   39.2270   31.9530 N.3   174  TYR174     -0.1241
     78  CA        77.4800   38.9810   31.9810 C.3   174  TYR174      0.1605
     79  C         77.2080   37.7960   32.8900 C.2   174  TYR174      0.2264
     80  O         78.1200   37.0360   33.2220 O.2   174  TYR174     -0.2867
     81  CB        76.9670   38.6900   30.5690 C.3   174  TYR174      0.0534
     82  CG        77.6190   37.4970   29.9060 C.ar  174  TYR174     -0.0201
     83  CD1       78.8710   37.6000   29.3070 C.ar  174  TYR174     -0.0009
     84  CD2       76.9820   36.2590   29.8850 C.ar  174  TYR174     -0.0009
     85  CE1       79.4730   36.4990   28.7050 C.ar  174  TYR174      0.0417
     86  CE2       77.5720   35.1560   29.2900 C.ar  174  TYR174      0.0417
     87  CZ        78.8190   35.2780   28.7020 C.ar  174  TYR174      0.1957
     88  OH        79.4110   34.1660   28.1330 O.3   174  TYR174     -0.2866
     89  N         76.9420   43.3500   32.8750 N.3   207  GLN207     -0.1245
     90  CA        76.1810   43.5450   31.6550 C.3   207  GLN207      0.1566
     91  C         74.6870   43.6180   31.8810 C.2   207  GLN207      0.2260
     92  O         74.0440   44.5800   31.4710 O.2   207  GLN207     -0.2867
     93  CB        76.5250   42.4570   30.6450 C.3   207  GLN207      0.0367
     94  CG        77.9980   42.4540   30.2660 C.3   207  GLN207      0.0905
     95  CD        78.3190   41.4830   29.1540 C.2   207  GLN207      0.2608
     96  OE1       77.4250   40.8340   28.6070 O.2   207  GLN207     -0.2717
     97  NE2       79.5930   41.3930   28.7970 N.am  207  GLN207     -0.0878
     98  N         72.0780   41.3080   30.8250 N.3   209  HIS209     -0.1241
     99  CA        71.2930   40.9890   29.6330 C.3   209  HIS209      0.1621
    100  C         70.3110   39.9810   30.2030 C.2   209  HIS209      0.2264
    101  O         70.6570   38.8230   30.4240 O.2   209  HIS209     -0.2867
    102  CB        72.1670   40.3500   28.5500 C.3   209  HIS209      0.0745
    103  CG        73.0850   41.3170   27.8670 C.ar  209  HIS209      0.0817
    104  ND1       72.6230   42.3910   27.1340 N.ar  209  HIS209     -0.2268
    105  CD2       74.4350   41.3880   27.8200 C.ar  209  HIS209      0.1154
    106  CE1       73.6460   43.0800   26.6690 C.ar  209  HIS209      0.1986
    107  NE2       74.7590   42.4940   27.0700 N.ar  209  HIS209     -0.2212
    108  N         75.3660   46.8510   30.2990 N.3   237  GLU237     -0.1245
    109  CA        74.7350   46.5530   29.0050 C.3   237  GLU237      0.1567
    110  C         73.3200   46.0490   29.1870 C.2   237  GLU237      0.2260
    111  O         72.9560   44.9900   28.6750 O.2   237  GLU237     -0.2867
    112  CB        75.5660   45.4880   28.2900 C.3   237  GLU237      0.0388
    113  CG        77.0110   45.9130   28.0880 C.3   237  GLU237      0.1160
    114  CD        77.8770   44.8160   27.5480 C.2   237  GLU237      0.3649
    115  OE1       77.3200   43.7790   27.1340 O.co2 237  GLU237     -0.2457
    116  OE2       79.1170   44.9870   27.5490 O.co2 237  GLU237     -0.2457
    117  N         71.7100   48.8980   26.7640 N.3   267  TRP267     -0.1241
    118  CA        72.3530   48.4560   25.5230 C.3   267  TRP267      0.1605
    119  C         71.4880   48.7160   24.2940 C.2   267  TRP267      0.2264
    120  O         71.0080   47.7840   23.6480 O.2   267  TRP267     -0.2867
    121  CB        72.7370   46.9660   25.6210 C.3   267  TRP267      0.0550
    122  CG        73.9190   46.5670   24.7550 C.ar  267  TRP267      0.0003
    123  CD1       73.9080   45.6960   23.7050 C.ar  267  TRP267      0.0946
    124  CD2       75.2630   47.0810   24.8330 C.ar  267  TRP267      0.0152
    125  NE1       75.1500   45.6440   23.1180 N.ar  267  TRP267     -0.2442
    126  CE2       76.0000   46.4840   23.7920 C.ar  267  TRP267      0.0810
    127  CE3       75.9090   47.9890   25.6820 C.ar  267  TRP267      0.0012
    128  CZ2       77.3530   46.7710   23.5680 C.ar  267  TRP267      0.0191
    129  CZ3       77.2520   48.2730   25.4580 C.ar  267  TRP267      0.0001
    130  CH2       77.9600   47.6640   24.4080 C.ar  267  TRP267      0.0015
    131  N         70.4350   44.3510   19.5850 N.3   275  TRP275     -0.1241
    132  CA        71.1150   43.1490   19.1170 C.3   275  TRP275      0.1605
    133  C         70.2510   41.9320   19.4630 C.2   275  TRP275      0.2264
    134  O         70.6060   40.7950   19.1610 O.2   275  TRP275     -0.2867
    135  CB        72.5160   43.0300   19.7350 C.3   275  TRP275      0.0550
    136  CG        72.5330   42.6530   21.1820 C.ar  275  TRP275      0.0003
    137  CD1       71.8260   43.2370   22.1910 C.ar  275  TRP275      0.0946
    138  CD2       73.2630   41.5720   21.7750 C.ar  275  TRP275      0.0152
    139  NE1       72.0620   42.5820   23.3740 N.ar  275  TRP275     -0.2442
    140  CE2       72.9370   41.5580   23.1490 C.ar  275  TRP275      0.0810
    141  CE3       74.1530   40.6140   21.2770 C.ar  275  TRP275      0.0012
    142  CZ2       73.4750   40.6170   24.0330 C.ar  275  TRP275      0.0191
    143  CZ3       74.6880   39.6770   22.1590 C.ar  275  TRP275      0.0001
    144  CH2       74.3430   39.6870   23.5210 C.ar  275  TRP275      0.0015
@<TRIPOS>BOND
     1    14    15    1
     2    14    11    1
     3    17    15   am
     4    59    57   am
     5    15    16    2
     6    13    12    2
     7    56    57    1
     8    56    55    1
     9    12    11    1
    10    52    53    1
    11    52    55    1
    12    52    51    1
    13    57    58    2
    14    53    54    2
    15    21    20    2
    16     8     7   ar
    17    11    10    1
    18     7     9   ar
    19     7     6    1
    20    10     3   am
    21    20    19    1
    22   132   133    1
    23   132   131    1
    24   132   135    1
    25   134   133    2
    26     6     5    1
    27    22    19    1
    28    22    23    1
    29     5     2    1
    30    18    19    1
    31   135   136    1
    32     3     4    2
    33     3     2    1
    34    24    23    1
    35    24    25    1
    36     2     1    1
    37    26    25    1
    38   136   138   ar
    39   136   137   ar
    40   141   138   ar
    41   141   143   ar
    42   138   140   ar
    43    49    50   ar
    44    49    47   ar
    45   143   144   ar
    46   137   139   ar
    47    50    48   ar
    48    47    44   ar
    49    30    29    2
    50    40    39    2
    51   125   123   ar
    52   125   126   ar
    53   140   139   ar
    54   140   142   ar
    55    48    46   ar
    56   144   142   ar
    57   128   126   ar
    58   128   130   ar
    59    44    46   ar
    60    44    42   ar
    61   120   119    2
    62   123   122   ar
    63   126   124   ar
    64    46    45   ar
    65    39    38    1
    66    29    28    1
    67    34    36   ar
    68    34    32   ar
    69   119   118    1
    70    42    41    1
    71    42    43   ar
    72    41    38    1
    73   130   129   ar
    74    36    35   ar
    75   122   124   ar
    76   122   121    1
    77   124   127   ar
    78    45    43   ar
    79    38    37    1
    80    27    28    1
    81    28    31    1
    82    32    31    1
    83    32    33   ar
    84   129   127   ar
    85   118   121    1
    86   118   117    1
    87    35    33   ar
    88    75    74   ar
    89    67    65   am
    90   106   107   ar
    91   106   104   ar
    92    76    74   ar
    93    74    73    1
    94   107   105   ar
    95   104   103   ar
    96   115   114   ar
    97   114   116   ar
    98   114   113    1
    99    65    64    1
   100    65    66    2
   101    64    61    1
   102   105   103   ar
   103   103   102    1
   104   113   112    1
   105    88    87    1
   106   112   109    1
   107    73    72    1
   108    63    62    2
   109   102    99    1
   110    72    69    1
   111    96    95    2
   112   111   110    2
   113    87    85   ar
   114    87    86   ar
   115    85    83   ar
   116    97    95   am
   117   109   110    1
   118   109   108    1
   119    62    61    1
   120    62    68   am
   121    71    70    2
   122    61    60    1
   123    95    94    1
   124    86    84   ar
   125    83    82   ar
   126    99   100    1
   127    99    98    1
   128    68    69    1
   129    69    70    1
   130    84    82   ar
   131    82    81    1
   132   100   101    2
   133    94    93    1
   134    81    78    1
   135    93    90    1
   136    92    91    2
   137    90    91    1
   138    90    89    1
   139    77    78    1
   140    78    79    1
   141    79    80    2
