@<TRIPOS>MOLECULE
tmp/1b3xA00.pdb
 152 148 0 0 0
SMALL
GASTEIGER

@<TRIPOS>ATOM
      1  N         79.6790   51.2650   20.6920 N.3    46  GLU46      -0.1231
      2  CA        79.1950   49.9000   20.5340 C.3    46  GLU46       0.1699
      3  C         80.2130   48.9380   19.9080 C.2    46  GLU46       0.2592
      4  O         80.2590   47.7660   20.2810 O.2    46  GLU46      -0.2718
      5  CB        77.8800   49.8850   19.7460 C.3    46  GLU46       0.0402
      6  CG        77.2040   48.5130   19.6740 C.3    46  GLU46       0.1161
      7  CD        75.7600   48.5700   19.1610 C.2    46  GLU46       0.3649
      8  OE1       75.3140   49.6360   18.6810 O.co2  46  GLU46      -0.2457
      9  OE2       75.0470   47.5490   19.2500 O.co2  46  GLU46      -0.2457
     10  N         81.0470   49.4340   18.9890 N.am   47  ASN47      -0.1974
     11  CA        82.0370   48.5820   18.3110 C.3    47  ASN47       0.1688
     12  C         83.3450   49.2350   17.8730 C.2    47  ASN47       0.2292
     13  O         84.3570   48.5520   17.7470 O.2    47  ASN47      -0.2864
     14  CB        81.4180   47.9360   17.0680 C.3    47  ASN47       0.1181
     15  CG        80.3790   46.9090   17.4060 C.2    47  ASN47       0.2629
     16  OD1       80.6930   45.8400   17.9190 O.2    47  ASN47      -0.2716
     17  ND2       79.1260   47.2280   17.1350 N.am   47  ASN47      -0.0877
     18  N         86.8870   48.4290   19.7570 N.3    50  LYS50      -0.1245
     19  CA        87.3080   47.0420   19.9300 C.3    50  LYS50       0.1561
     20  C         88.5810   46.7570   19.1300 C.2    50  LYS50       0.2260
     21  O         88.9340   47.5170   18.2250 O.2    50  LYS50      -0.2867
     22  CB        86.1700   46.0900   19.5640 C.3    50  LYS50       0.0271
     23  CG        84.9910   46.2190   20.5160 C.3    50  LYS50       0.0035
     24  CD        83.7900   45.4280   20.0690 C.3    50  LYS50       0.0206
     25  CE        82.5980   45.7210   20.9670 C.3    50  LYS50       0.1093
     26  NZ        81.3540   45.0180   20.5120 N.3    50  LYS50      -0.1314
     27  N         89.3920   44.5210   16.8180 N.3    52  ASP52      -0.1239
     28  CA        89.2100   44.3270   15.3810 C.3    52  ASP52       0.1674
     29  C         89.0310   45.6400   14.6170 C.2    52  ASP52       0.2266
     30  O         89.4790   45.7800   13.4730 O.2    52  ASP52      -0.2867
     31  CB        88.0290   43.3830   15.1040 C.3    52  ASP52       0.1410
     32  CG        86.6980   43.8930   15.6700 C.2    52  ASP52       0.3668
     33  OD1       86.6740   44.8330   16.4890 O.co2  52  ASP52      -0.2456
     34  OD2       85.6530   43.3270   15.3030 O.co2  52  ASP52      -0.2456
     35  N         85.6570   51.0060   25.3750 N.3    83  HIS83      -0.1241
     36  CA        85.3070   49.5920   25.3740 C.3    83  HIS83       0.1621
     37  C         85.7040   48.9740   24.0370 C.2    83  HIS83       0.2264
     38  O         85.2200   49.4170   23.0040 O.2    83  HIS83      -0.2867
     39  CB        83.7940   49.4920   25.5730 C.3    83  HIS83       0.0745
     40  CG        83.2320   48.1130   25.3980 C.ar   83  HIS83       0.0817
     41  ND1       83.0330   47.2570   26.4490 N.ar   83  HIS83      -0.2268
     42  CD2       82.7980   47.4650   24.2860 C.ar   83  HIS83       0.1154
     43  CE1       82.4970   46.1250   26.0010 C.ar   83  HIS83       0.1986
     44  NE2       82.3500   46.2350   24.6990 N.ar   83  HIS83      -0.2212
     45  N         90.0530   41.5050   24.9620 N.3    87  TRP87      -0.1241
     46  CA        88.9030   40.6230   24.8900 C.3    87  TRP87       0.1605
     47  C         89.2000   39.4890   23.9030 C.2    87  TRP87       0.2264
     48  O         89.9630   39.6640   22.9530 O.2    87  TRP87      -0.2867
     49  CB        87.7050   41.4660   24.4510 C.3    87  TRP87       0.0550
     50  CG        86.3750   40.8000   24.4560 C.ar   87  TRP87       0.0003
     51  CD1       85.9800   39.7370   25.2200 C.ar   87  TRP87       0.0946
     52  CD2       85.2360   41.1790   23.6670 C.ar   87  TRP87       0.0152
     53  NE1       84.6640   39.4340   24.9570 N.ar   87  TRP87      -0.2442
     54  CE2       84.1840   40.2970   24.0130 C.ar   87  TRP87       0.0810
     55  CE3       85.0060   42.1730   22.7040 C.ar   87  TRP87       0.0012
     56  CZ2       82.9100   40.3860   23.4200 C.ar   87  TRP87       0.0191
     57  CZ3       83.7430   42.2580   22.1170 C.ar   87  TRP87       0.0001
     58  CH2       82.7110   41.3660   22.4800 C.ar   87  TRP87       0.0015
     59  N         85.9370   39.3170   18.9050 N.3    90  GLN90      -0.1245
     60  CA        86.2440   40.4540   18.0220 C.3    90  GLN90       0.1566
     61  C         87.7320   40.8240   18.0950 C.2    90  GLN90       0.2260
     62  O         88.1170   42.0010   18.1380 O.2    90  GLN90      -0.2867
     63  CB        85.3260   41.6570   18.3180 C.3    90  GLN90       0.0367
     64  CG        83.9010   41.4670   17.7670 C.3    90  GLN90       0.0905
     65  CD        82.9560   42.6310   18.0390 C.2    90  GLN90       0.2608
     66  OE1       82.1590   42.5850   18.9730 O.2    90  GLN90      -0.2717
     67  NE2       83.0010   43.6490   17.1920 N.am   90  GLN90      -0.0878
     68  N         87.6490   42.3960   29.2860 N.3   130  ASN130     -0.1225
     69  CA        86.2510   42.0360   29.0730 C.3   130  ASN130      0.1785
     70  C         86.0700   40.5210   29.0050 C.2   130  ASN130      0.2597
     71  O         86.8310   39.8240   28.3280 O.2   130  ASN130     -0.2718
     72  CB        85.7230   42.6910   27.7840 C.3   130  ASN130      0.1169
     73  CG        84.1970   42.7030   27.6940 C.2   130  ASN130      0.2627
     74  OD1       83.5060   42.9660   28.6770 O.2   130  ASN130     -0.2716
     75  ND2       83.6710   42.4800   26.4930 N.am  130  ASN130     -0.0877
     76  N         85.1190   40.0220   29.7930 N.am  131  GLU131     -0.1979
     77  CA        84.7540   38.6090   29.8270 C.3   131  GLU131      0.1602
     78  C         85.8830   37.5950   29.9820 C.2   131  GLU131      0.2287
     79  O         85.9670   36.6490   29.2030 O.2   131  GLU131     -0.2864
     80  CB        83.9300   38.2800   28.5760 C.3   131  GLU131      0.0415
     81  CG        82.7270   39.2000   28.3770 C.3   131  GLU131      0.1163
     82  CD        81.9800   38.9420   27.0840 C.2   131  GLU131      0.3649
     83  OE1       82.4030   38.0920   26.2800 O.co2 131  GLU131     -0.2457
     84  OE2       80.9480   39.5930   26.8710 O.co2 131  GLU131     -0.2457
     85  N         79.6430   39.5060   32.0400 N.3   174  TYR174     -0.1241
     86  CA        78.2080   39.2590   32.0370 C.3   174  TYR174      0.1605
     87  C         77.8860   38.1060   32.9790 C.2   174  TYR174      0.2264
     88  O         78.7800   37.3740   33.4020 O.2   174  TYR174     -0.2867
     89  CB        77.7110   38.9470   30.6180 C.3   174  TYR174      0.0534
     90  CG        78.3170   37.7060   30.0010 C.ar  174  TYR174     -0.0201
     91  CD1       79.5440   37.7630   29.3480 C.ar  174  TYR174     -0.0009
     92  CD2       77.6580   36.4770   30.0620 C.ar  174  TYR174     -0.0009
     93  CE1       80.1060   36.6330   28.7690 C.ar  174  TYR174      0.0417
     94  CE2       78.2130   35.3310   29.4870 C.ar  174  TYR174      0.0417
     95  CZ        79.4390   35.4170   28.8400 C.ar  174  TYR174      0.1957
     96  OH        80.0060   34.2900   28.2700 O.3   174  TYR174     -0.2866
     97  N         77.6980   43.6710   33.0010 N.3   207  GLN207     -0.1245
     98  CA        76.9320   43.9020   31.7820 C.3   207  GLN207      0.1566
     99  C         75.4340   43.9760   32.0160 C.2   207  GLN207      0.2260
    100  O         74.8020   44.9640   31.6500 O.2   207  GLN207     -0.2867
    101  CB        77.2890   42.8650   30.7160 C.3   207  GLN207      0.0367
    102  CG        78.7610   42.9710   30.2950 C.3   207  GLN207      0.0905
    103  CD        79.1540   42.0210   29.1870 C.2   207  GLN207      0.2608
    104  OE1       78.3040   41.3850   28.5720 O.2   207  GLN207     -0.2717
    105  NE2       80.4520   41.9240   28.9230 N.am  207  GLN207     -0.0878
    106  N         72.8310   41.7010   30.9010 N.3   209  HIS209     -0.1241
    107  CA        72.0080   41.3800   29.7330 C.3   209  HIS209      0.1621
    108  C         71.0050   40.3860   30.3000 C.2   209  HIS209      0.2264
    109  O         71.3210   39.2130   30.4890 O.2   209  HIS209     -0.2867
    110  CB        72.8550   40.7430   28.6270 C.3   209  HIS209      0.0745
    111  CG        73.7470   41.7170   27.9270 C.ar  209  HIS209      0.0817
    112  ND1       73.2700   42.7690   27.1810 N.ar  209  HIS209     -0.2268
    113  CD2       75.1050   41.8010   27.8590 C.ar  209  HIS209      0.1154
    114  CE1       74.2780   43.4590   26.6790 C.ar  209  HIS209      0.1986
    115  NE2       75.4000   42.8860   27.0810 N.ar  209  HIS209     -0.2212
    116  N         76.0500   47.2650   30.3710 N.3   237  GLU237     -0.1245
    117  CA        75.3720   46.9730   29.1060 C.3   237  GLU237      0.1567
    118  C         73.9440   46.4760   29.2970 C.2   237  GLU237      0.2260
    119  O         73.5510   45.4550   28.7290 O.2   237  GLU237     -0.2867
    120  CB        76.1890   45.9260   28.3460 C.3   237  GLU237      0.0388
    121  CG        77.6770   46.2300   28.3320 C.3   237  GLU237      0.1160
    122  CD        78.4800   45.2160   27.5780 C.2   237  GLU237      0.3649
    123  OE1       77.8660   44.2820   27.0480 O.co2 237  GLU237     -0.2457
    124  OE2       79.7200   45.3590   27.5130 O.co2 237  GLU237     -0.2457
    125  N         72.4370   49.2190   26.8190 N.3   267  TRP267     -0.1241
    126  CA        73.0620   48.7970   25.5710 C.3   267  TRP267      0.1605
    127  C         72.2060   49.0800   24.3290 C.2   267  TRP267      0.2264
    128  O         71.7700   48.1610   23.6250 O.2   267  TRP267     -0.2867
    129  CB        73.4530   47.3140   25.6580 C.3   267  TRP267      0.0550
    130  CG        74.6350   46.9440   24.7970 C.ar  267  TRP267      0.0003
    131  CD1       74.6240   46.1430   23.6900 C.ar  267  TRP267      0.0946
    132  CD2       75.9830   47.4290   24.9260 C.ar  267  TRP267      0.0152
    133  NE1       75.8720   46.1120   23.1140 N.ar  267  TRP267     -0.2442
    134  CE2       76.7250   46.8940   23.8500 C.ar  267  TRP267      0.0810
    135  CE3       76.6320   48.2750   25.8420 C.ar  267  TRP267      0.0012
    136  CZ2       78.0850   47.1770   23.6600 C.ar  267  TRP267      0.0191
    137  CZ3       77.9860   48.5560   25.6540 C.ar  267  TRP267      0.0001
    138  CH2       78.6950   48.0070   24.5670 C.ar  267  TRP267      0.0015
    139  N         71.1960   44.6750   19.6300 N.3   275  TRP275     -0.1241
    140  CA        71.8500   43.4490   19.1910 C.3   275  TRP275      0.1605
    141  C         70.9500   42.2480   19.5420 C.2   275  TRP275      0.2264
    142  O         71.2350   41.1140   19.1690 O.2   275  TRP275     -0.2867
    143  CB        73.2400   43.3120   19.8370 C.3   275  TRP275      0.0550
    144  CG        73.2360   42.9450   21.3060 C.ar  275  TRP275      0.0003
    145  CD1       72.5540   43.5720   22.3100 C.ar  275  TRP275      0.0946
    146  CD2       73.9280   41.8490   21.9180 C.ar  275  TRP275      0.0152
    147  NE1       72.7720   42.9300   23.5070 N.ar  275  TRP275     -0.2442
    148  CE2       73.6180   41.8630   23.2960 C.ar  275  TRP275      0.0810
    149  CE3       74.7830   40.8410   21.4360 C.ar  275  TRP275      0.0012
    150  CZ2       74.1180   40.9230   24.2010 C.ar  275  TRP275      0.0191
    151  CZ3       75.2880   39.8960   22.3380 C.ar  275  TRP275      0.0001
    152  CH2       74.9510   39.9470   23.7030 C.ar  275  TRP275      0.0015
@<TRIPOS>BOND
     1    30    29    2
     2    29    28    1
     3    31    28    1
     4    31    32    1
     5    34    32   ar
     6    28    27    1
     7    32    33   ar
     8    14    15    1
     9    14    11    1
    10    17    15   am
    11    67    65   am
    12    15    16    2
    13    13    12    2
    14    64    65    1
    15    64    63    1
    16    12    11    1
    17    60    61    1
    18    60    63    1
    19    60    59    1
    20    65    66    2
    21    61    62    2
    22    21    20    2
    23    11    10    1
    24     8     7   ar
    25    10     3   am
    26    20    19    1
    27     7     9   ar
    28     7     6    1
    29   142   141    2
    30   140   141    1
    31   140   139    1
    32   140   143    1
    33    22    19    1
    34    22    23    1
    35     6     5    1
    36     5     2    1
    37    18    19    1
    38   143   144    1
    39     3     4    2
    40     3     2    1
    41    24    23    1
    42    24    25    1
    43    26    25    1
    44     2     1    1
    45   144   146   ar
    46   144   145   ar
    47   149   146   ar
    48   149   151   ar
    49   146   148   ar
    50    57    58   ar
    51    57    55   ar
    52   145   147   ar
    53   151   152   ar
    54    58    56   ar
    55    55    52   ar
    56    48    47    2
    57    38    37    2
    58   133   131   ar
    59   133   134   ar
    60   148   147   ar
    61   148   150   ar
    62    56    54   ar
    63   128   127    2
    64   136   134   ar
    65   136   138   ar
    66    52    54   ar
    67    52    50   ar
    68   131   130   ar
    69   152   150   ar
    70   134   132   ar
    71    47    46    1
    72    54    53   ar
    73    37    36    1
    74    42    44   ar
    75    42    40   ar
    76   127   126    1
    77    49    50    1
    78    49    46    1
    79    50    51   ar
    80   138   137   ar
    81    44    43   ar
    82   130   132   ar
    83   130   129    1
    84    46    45    1
    85   132   135   ar
    86    53    51   ar
    87    36    35    1
    88    36    39    1
    89    40    39    1
    90    40    41   ar
    91   126   129    1
    92   126   125    1
    93   137   135   ar
    94    43    41   ar
    95    83    82   ar
    96    75    73   am
    97   114   115   ar
    98   114   112   ar
    99    84    82   ar
   100   123   122   ar
   101   115   113   ar
   102    82    81    1
   103   112   111   ar
   104   124   122   ar
   105   122   121    1
   106    73    72    1
   107    73    74    2
   108    72    69    1
   109   113   111   ar
   110   111   110    1
   111    96    95    1
   112    71    70    2
   113   121   120    1
   114   120   117    1
   115    81    80    1
   116   104   103    2
   117    80    77    1
   118   110   107    1
   119   119   118    2
   120    93    95   ar
   121    93    91   ar
   122    95    94   ar
   123   105   103   am
   124    70    69    1
   125    70    76   am
   126    69    68    1
   127   117   118    1
   128   117   116    1
   129   103   102    1
   130    79    78    2
   131    91    90   ar
   132    94    92   ar
   133   107   108    1
   134   107   106    1
   135    76    77    1
   136    77    78    1
   137    90    92   ar
   138    90    89    1
   139   102   101    1
   140   108   109    2
   141    89    86    1
   142   101    98    1
   143   100    99    2
   144    98    99    1
   145    98    97    1
   146    86    85    1
   147    86    87    1
   148    87    88    2
