@<TRIPOS>MOLECULE
tmp/1b3zA01.pdb
 114 114 0 0 0
SMALL
GASTEIGER

@<TRIPOS>ATOM
      1  N         89.7540   41.3340   24.9190 N.3    87  TRP87      -0.1227
      2  CA        88.5940   40.4640   24.8330 C.3    87  TRP87       0.1737
      3  C         88.9080   39.3170   23.8650 C.2    87  TRP87       0.2595
      4  O         89.6790   39.4790   22.9230 O.2    87  TRP87      -0.2718
      5  CB        87.4130   41.3090   24.3410 C.3    87  TRP87       0.0564
      6  CG        86.0750   40.6560   24.3420 C.ar   87  TRP87       0.0003
      7  CD1       85.6550   39.6270   25.1400 C.ar   87  TRP87       0.0946
      8  CD2       84.9440   41.0240   23.5330 C.ar   87  TRP87       0.0152
      9  NE1       84.3360   39.3360   24.8830 N.ar   87  TRP87      -0.2442
     10  CE2       83.8720   40.1790   23.9050 C.ar   87  TRP87       0.0810
     11  CE3       84.7320   41.9910   22.5370 C.ar   87  TRP87       0.0012
     12  CZ2       82.6000   40.2710   23.3140 C.ar   87  TRP87       0.0191
     13  CZ3       83.4650   42.0850   21.9500 C.ar   87  TRP87       0.0001
     14  CH2       82.4170   41.2260   22.3410 C.ar   87  TRP87       0.0015
     15  N         88.3340   38.1480   24.1280 N.am   88  HIS88      -0.1961
     16  CA        88.5560   36.9730   23.2930 C.3    88  HIS88       0.1787
     17  C         87.7000   36.9820   22.0180 C.2    88  HIS88       0.2620
     18  O         87.9960   36.2660   21.0620 O.2    88  HIS88      -0.2715
     19  CB        88.2910   35.6960   24.0990 C.3    88  HIS88       0.0785
     20  CG        86.8570   35.5170   24.5060 C.ar   88  HIS88       0.0821
     21  ND1       86.2870   36.1920   25.5650 N.ar   88  HIS88      -0.2267
     22  CD2       85.8740   34.7450   23.9820 C.ar   88  HIS88       0.1154
     23  CE1       85.0130   35.8510   25.6700 C.ar   88  HIS88       0.1986
     24  NE2       84.7410   34.9740   24.7230 N.ar   88  HIS88      -0.2212
     25  N         86.6270   37.7660   22.0310 N.am   89  SER89      -0.1950
     26  CA        85.7150   37.8670   20.9010 C.3    89  SER89       0.1924
     27  C         86.0230   39.1510   20.1330 C.2    89  SER89       0.2314
     28  O         86.5890   40.0860   20.7000 O.2    89  SER89      -0.2863
     29  CB        84.2760   37.8420   21.4050 C.3    89  SER89       0.2116
     30  OG        83.3650   38.1750   20.3790 O.3    89  SER89      -0.2180
     31  N         84.8210   39.8610   29.7320 N.3   131  GLU131     -0.1245
     32  CA        84.4550   38.4520   29.8000 C.3   131  GLU131      0.1567
     33  C         85.5990   37.4600   29.9170 C.2   131  GLU131      0.2260
     34  O         85.7310   36.5730   29.0720 O.2   131  GLU131     -0.2867
     35  CB        83.6260   38.0980   28.5720 C.3   131  GLU131      0.0388
     36  CG        82.4500   39.0050   28.3360 C.3   131  GLU131      0.1160
     37  CD        81.7750   38.7280   27.0190 C.2   131  GLU131      0.3649
     38  OE1       82.3030   37.9340   26.2170 O.co2 131  GLU131     -0.2457
     39  OE2       80.6930   39.2890   26.7940 O.co2 131  GLU131     -0.2457
     40  N         88.6740   32.0840   31.8770 N.3   140  ARG140     -0.1245
     41  CA        88.4220   31.6350   30.5210 C.3   140  ARG140      0.1563
     42  C         89.7550   31.4500   29.7930 C.2   140  ARG140      0.2260
     43  O         90.6420   32.3120   29.8500 O.2   140  ARG140     -0.2867
     44  CB        87.5650   32.6720   29.7940 C.3   140  ARG140      0.0307
     45  CG        87.1230   32.2600   28.4120 C.3   140  ARG140      0.0489
     46  CD        86.5230   33.4340   27.6700 C.3   140  ARG140      0.2205
     47  NE        85.1980   33.8240   28.1520 N.pl3 140  ARG140     -0.0865
     48  CZ        84.0650   33.2090   27.8270 C.cat 140  ARG140      0.5346
     49  NH1       84.0780   32.1530   27.0280 N.pl3 140  ARG140      0.1354
     50  NH2       82.9050   33.7080   28.2220 N.pl3 140  ARG140      0.1354
     51  N         79.3720   39.3320   31.9300 N.3   174  TYR174     -0.1227
     52  CA        77.9370   39.0890   31.9400 C.3   174  TYR174      0.1736
     53  C         77.6090   37.9380   32.8840 C.2   174  TYR174      0.2595
     54  O         78.4960   37.2010   33.3080 O.2   174  TYR174     -0.2718
     55  CB        77.4240   38.7940   30.5250 C.3   174  TYR174      0.0548
     56  CG        78.0280   37.5660   29.8860 C.ar  174  TYR174     -0.0200
     57  CD1       79.2990   37.6060   29.3170 C.ar  174  TYR174     -0.0009
     58  CD2       77.3370   36.3540   29.8770 C.ar  174  TYR174     -0.0009
     59  CE1       79.8700   36.4700   28.7560 C.ar  174  TYR174      0.0417
     60  CE2       77.9000   35.2080   29.3180 C.ar  174  TYR174      0.0417
     61  CZ        79.1680   35.2700   28.7640 C.ar  174  TYR174      0.1957
     62  OH        79.7480   34.1230   28.2540 O.3   174  TYR174     -0.2866
     63  N         76.3240   37.7710   33.1750 N.am  175  ASN175     -0.1974
     64  CA        75.8450   36.7370   34.0880 C.3   175  ASN175      0.1688
     65  C         76.2810   36.9340   35.5480 C.2   175  ASN175      0.2292
     66  O         76.4310   35.9680   36.2940 O.2   175  ASN175     -0.2864
     67  CB        76.1870   35.3220   33.5930 C.3   175  ASN175      0.1181
     68  CG        75.2550   34.8450   32.4850 C.2   175  ASN175      0.2629
     69  OD1       74.2240   35.4610   32.2050 O.2   175  ASN175     -0.2716
     70  ND2       75.6260   33.7510   31.8400 N.am  175  ASN175     -0.0877
     71  N         77.3990   43.5130   32.9060 N.3   207  GLN207     -0.1245
     72  CA        76.6270   43.7460   31.6930 C.3   207  GLN207      0.1566
     73  C         75.1310   43.8190   31.9240 C.2   207  GLN207      0.2260
     74  O         74.4910   44.7940   31.5340 O.2   207  GLN207     -0.2867
     75  CB        76.9840   42.7230   30.6180 C.3   207  GLN207      0.0367
     76  CG        78.4300   42.8620   30.1600 C.3   207  GLN207      0.0905
     77  CD        78.8090   41.8680   29.0970 C.2   207  GLN207      0.2608
     78  OE1       77.9440   41.2430   28.4970 O.2   207  GLN207     -0.2717
     79  NE2       80.1050   41.7130   28.8560 N.am  207  GLN207     -0.0878
     80  N         72.5410   41.5410   30.8460 N.3   209  HIS209     -0.1241
     81  CA        71.7260   41.2000   29.6750 C.3   209  HIS209      0.1621
     82  C         70.7170   40.2030   30.2340 C.2   209  HIS209      0.2264
     83  O         71.0200   39.0210   30.4080 O.2   209  HIS209     -0.2867
     84  CB        72.5940   40.5580   28.5860 C.3   209  HIS209      0.0745
     85  CG        73.4820   41.5380   27.8780 C.ar  209  HIS209      0.0817
     86  ND1       72.9910   42.5930   27.1420 N.ar  209  HIS209     -0.2268
     87  CD2       74.8330   41.6360   27.8190 C.ar  209  HIS209      0.1154
     88  CE1       73.9940   43.3000   26.6580 C.ar  209  HIS209      0.1986
     89  NE2       75.1210   42.7410   27.0550 N.ar  209  HIS209     -0.2212
     90  N         70.9270   44.4940   19.5800 N.3   275  TRP275     -0.1227
     91  CA        71.6100   43.2800   19.1470 C.3   275  TRP275      0.1737
     92  C         70.7290   42.0650   19.5010 C.2   275  TRP275      0.2595
     93  O         71.0670   40.9240   19.1880 O.2   275  TRP275     -0.2718
     94  CB        72.9850   43.1780   19.8180 C.3   275  TRP275      0.0564
     95  CG        72.9440   42.8080   21.2860 C.ar  275  TRP275      0.0003
     96  CD1       72.2070   43.4090   22.2720 C.ar  275  TRP275      0.0946
     97  CD2       73.6480   41.7290   21.9160 C.ar  275  TRP275      0.0152
     98  NE1       72.4080   42.7660   23.4720 N.ar  275  TRP275     -0.2442
     99  CE2       73.2890   41.7360   23.2840 C.ar  275  TRP275      0.0810
    100  CE3       74.5480   40.7560   21.4550 C.ar  275  TRP275      0.0012
    101  CZ2       73.7980   40.8060   24.1960 C.ar  275  TRP275      0.0191
    102  CZ3       75.0560   39.8300   22.3650 C.ar  275  TRP275      0.0001
    103  CH2       74.6740   39.8630   23.7200 C.ar  275  TRP275      0.0015
    104  N         69.6280   42.3310   20.2040 N.am  276  ARG276     -0.1980
    105  CA        68.6470   41.3250   20.6290 C.3   276  ARG276      0.1597
    106  C         67.2800   41.9160   20.2590 C.2   276  ARG276      0.2287
    107  O         66.3360   41.8750   21.0570 O.2   276  ARG276     -0.2864
    108  CB        68.6830   41.1240   22.1590 C.3   276  ARG276      0.0334
    109  CG        69.9250   40.4480   22.7500 C.3   276  ARG276      0.0492
    110  CD        69.8850   40.4420   24.2980 C.3   276  ARG276      0.2205
    111  NE        68.8020   39.6180   24.8440 N.pl3 276  ARG276     -0.0865
    112  CZ        68.2900   39.7270   26.0760 C.cat 276  ARG276      0.5346
    113  NH1       68.7380   40.6380   26.9380 N.pl3 276  ARG276      0.1354
    114  NH2       67.3360   38.8890   26.4570 N.pl3 276  ARG276      0.1354
@<TRIPOS>BOND
     1    91    92    1
     2    91    90    1
     3    91    94    1
     4    93    92    2
     5    92   104   am
     6    94    95    1
     7    27    28    2
     8    27    26    1
     9   104   105    1
    10   106   105    1
    11   106   107    2
    12    30    29    1
    13   105   108    1
    14    26    29    1
    15    26    25    1
    16    18    17    2
    17    95    97   ar
    18    95    96   ar
    19   100    97   ar
    20   100   102   ar
    21    97    99   ar
    22    13    14   ar
    23    13    11   ar
    24    17    25   am
    25    17    16    1
    26   108   109    1
    27    96    98   ar
    28    14    12   ar
    29   102   103   ar
    30    11     8   ar
    31   109   110    1
    32     4     3    2
    33    99    98   ar
    34    99   101   ar
    35    16    19    1
    36    16    15    1
    37    12    10   ar
    38     8    10   ar
    39     8     6   ar
    40   103   101   ar
    41     3    15   am
    42     3     2    1
    43    10     9   ar
    44    22    20   ar
    45    22    24   ar
    46    19    20    1
    47   110   111    1
    48     5     6    1
    49     5     2    1
    50     6     7   ar
    51    20    21   ar
    52    24    23   ar
    53     2     1    1
    54   111   112    2
    55     9     7   ar
    56    21    23   ar
    57   112   114    1
    58   112   113    1
    59    38    37   ar
    60    88    89   ar
    61    88    86   ar
    62    39    37   ar
    63    37    36    1
    64    49    48    1
    65    89    87   ar
    66    86    85   ar
    67    46    47    1
    68    46    45    1
    69    87    85   ar
    70    48    47    2
    71    48    50    1
    72    85    84    1
    73    62    61    1
    74    36    35    1
    75    45    44    1
    76    78    77    2
    77    35    32    1
    78    84    81    1
    79    59    61   ar
    80    59    57   ar
    81    61    60   ar
    82    79    77   am
    83    34    33    2
    84    77    76    1
    85    57    56   ar
    86    60    58   ar
    87    81    82    1
    88    81    80    1
    89    31    32    1
    90    42    43    2
    91    42    41    1
    92    44    41    1
    93    32    33    1
    94    58    56   ar
    95    56    55    1
    96    76    75    1
    97    82    83    2
    98    41    40    1
    99    55    52    1
   100    75    72    1
   101    74    73    2
   102    72    73    1
   103    72    71    1
   104    70    68   am
   105    51    52    1
   106    52    53    1
   107    69    68    2
   108    68    67    1
   109    53    63   am
   110    53    54    2
   111    63    64    1
   112    67    64    1
   113    64    65    1
   114    65    66    2
