@<TRIPOS>MOLECULE
tmp/1b42A01.pdb
 108 104 0 0 0
SMALL
GASTEIGER

@<TRIPOS>ATOM
      1  N         23.4260   19.2950   20.7390 N.3    22  TYR22      -0.1241
      2  CA        22.7410   18.3780   21.6270 C.3    22  TYR22       0.1605
      3  C         23.6920   17.4480   22.3800 C.2    22  TYR22       0.2264
      4  O         24.5600   16.8310   21.7840 O.2    22  TYR22      -0.2867
      5  CB        21.7400   17.5610   20.8290 C.3    22  TYR22       0.0534
      6  CG        21.1320   16.4350   21.6160 C.ar   22  TYR22      -0.0201
      7  CD1       20.2760   16.6860   22.7010 C.ar   22  TYR22      -0.0009
      8  CD2       21.4420   15.1170   21.3160 C.ar   22  TYR22      -0.0009
      9  CE1       19.7530   15.6420   23.4680 C.ar   22  TYR22       0.0417
     10  CE2       20.9280   14.0640   22.0700 C.ar   22  TYR22       0.0417
     11  CZ        20.0900   14.3260   23.1460 C.ar   22  TYR22       0.1957
     12  OH        19.6340   13.2720   23.9100 O.3    22  TYR22      -0.2866
     13  N         19.3950   12.9700   28.0970 N.3    27  ALA27      -0.1245
     14  CA        18.3520   11.9460   28.0570 C.3    27  ALA27       0.1562
     15  C         18.2990   11.2160   29.3790 C.2    27  ALA27       0.2260
     16  O         17.2990   10.5820   29.7100 O.2    27  ALA27      -0.2867
     17  CB        18.6320   10.9570   26.9390 C.3    27  ALA27       0.0290
     18  N          7.0180   16.5680   16.2250 N.3   171  ARG171     -0.1245
     19  CA         8.3630   16.4480   16.7780 C.3   171  ARG171      0.1563
     20  C          9.2060   15.9240   15.6430 C.2   171  ARG171      0.2260
     21  O          8.9740   14.8400   15.1140 O.2   171  ARG171     -0.2867
     22  CB         8.4280   15.4850   17.9650 C.3   171  ARG171      0.0307
     23  CG         9.7230   15.6160   18.7630 C.3   171  ARG171      0.0489
     24  CD        10.3380   14.2670   19.0740 C.3   171  ARG171      0.2205
     25  NE        11.0680   13.7430   17.9300 N.pl3 171  ARG171     -0.0865
     26  CZ        11.4480   12.4790   17.7750 C.cat 171  ARG171      0.5346
     27  NH1       11.1710   11.5470   18.6750 N.pl3 171  ARG171      0.1354
     28  NH2       12.1830   12.1640   16.7220 N.pl3 171  ARG171      0.1354
     29  N         15.1190   12.8480   14.6330 N.3   174  PHE174     -0.1241
     30  CA        16.4760   13.3120   14.8720 C.3   174  PHE174      0.1605
     31  C         17.3640   13.1420   13.6680 C.2   174  PHE174      0.2264
     32  O         17.3580   12.0900   13.0400 O.2   174  PHE174     -0.2867
     33  CB        17.0200   12.6250   16.1030 C.3   174  PHE174      0.0534
     34  CG        16.1390   12.8180   17.2750 C.ar  174  PHE174     -0.0203
     35  CD1       15.6080   14.0840   17.5310 C.ar  174  PHE174     -0.0042
     36  CD2       15.7370   11.7470   18.0500 C.ar  174  PHE174     -0.0042
     37  CE1       14.6920   14.2790   18.5320 C.ar  174  PHE174     -0.0003
     38  CE2       14.8120   11.9300   19.0670 C.ar  174  PHE174     -0.0003
     39  CZ        14.2860   13.2020   19.3080 C.ar  174  PHE174     -0.0000
     40  N         20.4430   12.3730   13.1150 N.3   176  ASP176     -0.1225
     41  CA        21.2320   11.1500   13.0540 C.3   176  ASP176      0.1805
     42  C         20.3590    9.9100   12.8500 C.2   176  ASP176      0.2597
     43  O         20.8560    8.7870   12.8020 O.2   176  ASP176     -0.2718
     44  CB        22.1620   11.0050   14.2800 C.3   176  ASP176      0.1424
     45  CG        21.4070   10.9140   15.6200 C.2   176  ASP176      0.3668
     46  OD1       20.2580   11.4080   15.7240 O.co2 176  ASP176     -0.2456
     47  OD2       21.9910   10.3580   16.5880 O.co2 176  ASP176     -0.2456
     48  N         19.0590   10.1250   12.7050 N.am  177  GLN177     -0.1979
     49  CA        18.1060    9.0500   12.4860 C.3   177  GLN177      0.1601
     50  C         17.2460    9.4120   11.2880 C.2   177  GLN177      0.2287
     51  O         16.0940    8.9960   11.1860 O.2   177  GLN177     -0.2864
     52  CB        17.2230    8.8600   13.7190 C.3   177  GLN177      0.0394
     53  CG        17.8170    7.9750   14.8050 C.3   177  GLN177      0.0908
     54  CD        16.9160    7.8690   16.0340 C.2   177  GLN177      0.2608
     55  OE1       17.3100    8.2650   17.1290 O.2   177  GLN177     -0.2717
     56  NE2       15.7020    7.3440   15.8570 N.am  177  GLN177     -0.0878
     57  N         13.6140   17.6120   28.1400 N.3   198  TYR198     -0.1227
     58  CA        14.3710   17.7590   26.8990 C.3   198  TYR198      0.1736
     59  C         13.5750   17.4020   25.6570 C.2   198  TYR198      0.2596
     60  O         14.1250   16.9790   24.6510 O.2   198  TYR198     -0.2718
     61  CB        15.6520   16.9340   26.9680 C.3   198  TYR198      0.0548
     62  CG        16.5960   17.5120   27.9600 C.ar  198  TYR198     -0.0200
     63  CD1       17.2230   18.7340   27.7010 C.ar  198  TYR198     -0.0009
     64  CD2       16.7710   16.9150   29.1970 C.ar  198  TYR198     -0.0009
     65  CE1       17.9720   19.3420   28.6460 C.ar  198  TYR198      0.0417
     66  CE2       17.5280   17.5220   30.1500 C.ar  198  TYR198      0.0417
     67  CZ        18.1220   18.7400   29.8700 C.ar  198  TYR198      0.1957
     68  OH        18.8380   19.3810   30.8480 O.3   198  TYR198     -0.2866
     69  N         12.2700   17.6020   25.7290 N.am  199  SER199     -0.1938
     70  CA        11.4010   17.3130   24.6170 C.3   199  SER199      0.2055
     71  C         11.5480   18.3230   23.4680 C.2   199  SER199      0.2642
     72  O         11.6720   19.5310   23.6860 O.2   199  SER199     -0.2714
     73  CB         9.9670   17.3070   25.1120 C.3   199  SER199      0.2130
     74  OG         9.0910   16.8530   24.1040 O.3   199  SER199     -0.2179
     75  N         11.5560   17.8100   22.2380 N.am  200  ALA200     -0.1977
     76  CA        11.6530   18.6370   21.0410 C.3   200  ALA200      0.1597
     77  C         10.2870   18.7870   20.3900 C.2   200  ALA200      0.2287
     78  O         10.1680   19.3450   19.2990 O.2   200  ALA200     -0.2864
     79  CB        12.5960   18.0110   20.0760 C.3   200  ALA200      0.0319
     80  N         16.7400   20.2950   16.4700 N.3   227  GLU227     -0.1245
     81  CA        17.4990   19.7010   17.5530 C.3   227  GLU227      0.1567
     82  C         18.3350   20.6960   18.3560 C.2   227  GLU227      0.2260
     83  O         18.4200   20.5990   19.5800 O.2   227  GLU227     -0.2867
     84  CB        18.4100   18.6210   16.9590 C.3   227  GLU227      0.0388
     85  CG        19.4060   18.0030   17.9110 C.3   227  GLU227      0.1160
     86  CD        20.3680   17.0810   17.1930 C.2   227  GLU227      0.3649
     87  OE1       21.3930   17.5840   16.6690 O.co2 227  GLU227     -0.2457
     88  OE2       20.0900   15.8600   17.1440 O.co2 227  GLU227     -0.2457
     89  N         15.8190   23.4820   19.9320 N.3   230  MET230     -0.1230
     90  CA        15.0890   22.9320   21.0680 C.3   230  MET230      0.1702
     91  C         16.0320   22.5410   22.1980 C.2   230  MET230      0.2592
     92  O         15.6450   22.5330   23.3630 O.2   230  MET230     -0.2718
     93  CB        14.2220   21.7460   20.6490 C.3   230  MET230      0.0401
     94  CG        13.0730   22.1020   19.6750 C.3   230  MET230      0.0596
     95  SD        11.8190   23.2370   20.3210 S.3   230  MET230     -0.1393
     96  CE        11.0110   22.2150   21.5310 C.3   230  MET230      0.0692
     97  N         17.2770   22.2230   21.8700 N.am  231  TYR231     -0.1976
     98  CA        18.2240   21.8510   22.9040 C.3   231  TYR231      0.1639
     99  C         18.6520   23.1020   23.6610 C.2   231  TYR231      0.2290
    100  O         18.9200   23.0540   24.8700 O.2   231  TYR231     -0.2864
    101  CB        19.4470   21.1230   22.3550 C.3   231  TYR231      0.0560
    102  CG        20.2790   20.5790   23.4870 C.ar  231  TYR231     -0.0198
    103  CD1       19.7500   19.6160   24.3450 C.ar  231  TYR231     -0.0009
    104  CD2       21.5370   21.0930   23.7820 C.ar  231  TYR231     -0.0009
    105  CE1       20.4380   19.1810   25.4760 C.ar  231  TYR231      0.0417
    106  CE2       22.2400   20.6560   24.9180 C.ar  231  TYR231      0.0417
    107  CZ        21.6670   19.7000   25.7530 C.ar  231  TYR231      0.1957
    108  OH        22.2980   19.2530   26.8820 O.3   231  TYR231     -0.2866
@<TRIPOS>BOND
     1    51    50    2
     2    50    49    1
     3    49    48    1
     4    49    52    1
     5    48    42   am
     6    43    42    2
     7    42    41    1
     8    32    31    2
     9    41    40    1
    10    41    44    1
    11    31    30    1
    12    52    53    1
    13    44    45    1
    14    29    30    1
    15    53    54    1
    16    30    33    1
    17    21    20    2
    18    45    46   ar
    19    45    47   ar
    20    20    19    1
    21    56    54   am
    22    54    55    2
    23    33    34    1
    24    18    19    1
    25    80    81    1
    26    87    86   ar
    27    28    26    1
    28    19    22    1
    29    84    81    1
    30    84    85    1
    31    88    86   ar
    32    86    85    1
    33    34    35   ar
    34    34    36   ar
    35    35    37   ar
    36    81    82    1
    37    26    25    2
    38    26    27    1
    39    25    24    1
    40    22    23    1
    41    36    38   ar
    42    82    83    2
    43    37    39   ar
    44    23    24    1
    45    38    39   ar
    46    78    77    2
    47    94    95    1
    48    94    93    1
    49    89    90    1
    50    79    76    1
    51    95    96    1
    52    77    76    1
    53    93    90    1
    54     1     2    1
    55     5     6    1
    56     5     2    1
    57    76    75    1
    58    90    91    1
    59     8     6   ar
    60     8    10   ar
    61     6     7   ar
    62     2     3    1
    63     4     3    2
    64    97    91   am
    65    97    98    1
    66    10    11   ar
    67    91    92    2
    68    75    71   am
    69   101    98    1
    70   101   102    1
    71     7     9   ar
    72    98    99    1
    73    11     9   ar
    74    11    12    1
    75    71    72    2
    76    71    70    1
    77   102   104   ar
    78   102   103   ar
    79    99   100    2
    80   104   106   ar
    81    74    73    1
    82   103   105   ar
    83    70    73    1
    84    70    69    1
    85    60    59    2
    86   106   107   ar
    87   105   107   ar
    88    59    69   am
    89    59    58    1
    90   107   108    1
    91    58    61    1
    92    58    57    1
    93    17    14    1
    94    61    62    1
    95    63    62   ar
    96    63    65   ar
    97    62    64   ar
    98    14    13    1
    99    14    15    1
   100    65    67   ar
   101    64    66   ar
   102    15    16    2
   103    67    66   ar
   104    67    68    1
