@<TRIPOS>MOLECULE
tmp/1b42A00.pdb
 186 179 0 0 0
SMALL
GASTEIGER

@<TRIPOS>ATOM
      1  N         -0.7120   15.8720   31.2250 N.3    39  GLN39      -0.1245
      2  CA        -2.0770   16.3580   31.0550 C.3    39  GLN39       0.1566
      3  C         -2.0600   17.8770   31.0870 C.2    39  GLN39       0.2260
      4  O         -2.7670   18.5300   30.3180 O.2    39  GLN39      -0.2867
      5  CB        -2.9830   15.8000   32.1550 C.3    39  GLN39       0.0367
      6  CG        -3.3470   14.2990   32.0220 C.3    39  GLN39       0.0905
      7  CD        -4.0340   13.9550   30.7080 C.2    39  GLN39       0.2608
      8  OE1       -4.9520   14.6400   30.2670 O.2    39  GLN39      -0.2717
      9  NE2       -3.5960   12.8820   30.0860 N.am   39  GLN39      -0.0878
     10  N         -0.7760   19.1740   27.7810 N.3    42  LEU42      -0.1245
     11  CA        -1.8730   19.0730   26.8070 C.3    42  LEU42       0.1561
     12  C         -3.0030   20.0750   27.0370 C.2    42  LEU42       0.2260
     13  O         -3.4980   20.7020   26.1050 O.2    42  LEU42      -0.2867
     14  CB        -2.4410   17.6390   26.8060 C.3    42  LEU42       0.0270
     15  CG        -1.5630   16.5740   26.1660 C.3    42  LEU42       0.0019
     16  CD1       -2.1300   15.2240   26.4090 C.3    42  LEU42       0.0001
     17  CD2       -1.4560   16.8730   24.7020 C.3    42  LEU42       0.0001
     18  N        -11.0930   14.6230   18.2290 N.3    66  TYR66      -0.1227
     19  CA        -9.8380   14.4290   18.9050 C.3    66  TYR66       0.1736
     20  C         -9.4730   12.9730   18.7050 C.2    66  TYR66       0.2595
     21  O        -10.1640   12.0810   19.1930 O.2    66  TYR66      -0.2718
     22  CB       -10.0030   14.7620   20.3950 C.3    66  TYR66       0.0548
     23  CG        -8.7100   15.0190   21.1660 C.ar   66  TYR66      -0.0200
     24  CD1       -7.6120   14.1810   21.0150 C.ar   66  TYR66      -0.0009
     25  CD2       -8.6040   16.0770   22.0720 C.ar   66  TYR66      -0.0009
     26  CE1       -6.4370   14.3720   21.7430 C.ar   66  TYR66       0.0417
     27  CE2       -7.4230   16.2800   22.8140 C.ar   66  TYR66       0.0417
     28  CZ        -6.3470   15.4150   22.6370 C.ar   66  TYR66       0.1957
     29  OH        -5.1910   15.5690   23.3610 O.3    66  TYR66      -0.2866
     30  N         -8.3850   12.7510   17.9740 N.am   67  ILE67      -0.1966
     31  CA        -7.8680   11.4200   17.6860 C.3    67  ILE67       0.1727
     32  C         -6.5850   11.2520   18.5170 C.2    67  ILE67       0.2617
     33  O         -5.6800   12.0860   18.4640 O.2    67  ILE67      -0.2715
     34  CB        -7.6110   11.2600   16.1550 C.3    67  ILE67       0.0290
     35  CG1       -8.8780   11.6470   15.3940 C.3    67  ILE67       0.0022
     36  CG2       -7.2800    9.8160   15.7960 C.3    67  ILE67       0.0023
     37  CD1       -8.8230   11.4390   13.9050 C.3    67  ILE67       0.0001
     38  N         -6.5100   10.1600   19.2670 N.am   68  GLY68      -0.1940
     39  CA        -5.3780    9.9220   20.1450 C.3    68  GLY68       0.2014
     40  C         -5.6930   10.6030   21.4570 C.2    68  GLY68       0.2640
     41  O         -4.7950   11.0910   22.1340 O.2    68  GLY68      -0.2714
     42  N         -6.9660   10.5410   21.8460 N.am   69  SER69      -0.1935
     43  CA        -7.5000   11.2030   23.0400 C.3    69  SER69       0.2055
     44  C         -7.4810   10.5760   24.4400 C.2    69  SER69       0.2643
     45  O         -7.7310   11.2970   25.4090 O.2    69  SER69      -0.2714
     46  CB        -8.9330   11.6410   22.7460 C.3    69  SER69       0.2130
     47  OG        -9.7020   10.5410   22.2780 O.3    69  SER69      -0.2179
     48  N         -7.2480    9.2620   24.5370 N.am   70  ALA70      -0.1963
     49  CA        -7.2450    8.5130   25.7970 C.3    70  ALA70       0.1713
     50  C         -5.9290    8.5870   26.5460 C.2    70  ALA70       0.2458
     51  O         -4.8740    8.4720   25.9500 O.2    70  ALA70      -0.2730
     52  CB        -7.6080    7.0440   25.5340 C.3    70  ALA70       0.0333
     53  N         -5.9690    8.6570   27.8870 N.am   71  PRO71      -0.2716
     54  CA        -7.1930    8.6650   28.6950 C.3    71  PRO71       0.1536
     55  C         -8.0050    9.9260   28.5200 C.2    71  PRO71       0.2599
     56  O         -9.2240    9.8990   28.7000 O.2    71  PRO71      -0.2715
     57  CB        -6.6700    8.4950   30.1330 C.3    71  PRO71       0.0310
     58  CG        -5.2850    9.0910   30.0830 C.3    71  PRO71       0.0237
     59  CD        -4.7570    8.6430   28.7270 C.3    71  PRO71       0.0939
     60  N         -7.3280   11.0260   28.1810 N.am   72  GLY72      -0.1955
     61  CA        -7.9890   12.2990   27.9560 C.3    72  GLY72       0.1869
     62  C         -8.5940   13.0060   29.1490 C.2    72  GLY72       0.2309
     63  O         -9.4870   13.8250   28.9830 O.2    72  GLY72      -0.2863
     64  N         -7.6270   15.4710   30.9520 N.3    74  HIS74      -0.1241
     65  CA        -7.6100   16.9240   30.8320 C.3    74  HIS74       0.1621
     66  C         -8.6780   17.4850   29.8730 C.2    74  HIS74       0.2264
     67  O         -8.9840   18.6730   29.9210 O.2    74  HIS74      -0.2867
     68  CB        -6.2290   17.3960   30.3740 C.3    74  HIS74       0.0745
     69  CG        -6.0350   17.2970   28.8950 C.ar   74  HIS74       0.0817
     70  ND1       -5.6060   16.1490   28.2780 N.ar   74  HIS74      -0.2268
     71  CD2       -6.3360   18.1700   27.9010 C.ar   74  HIS74       0.1154
     72  CE1       -5.6630   16.3090   26.9720 C.ar   74  HIS74       0.1986
     73  NE2       -6.1050   17.5250   26.7140 N.ar   74  HIS74      -0.2212
     74  N        -11.7830    9.7830   19.8480 N.3    94  ILE94      -0.1231
     75  CA       -11.4930    8.4770   19.2640 C.3    94  ILE94       0.1692
     76  C        -10.0810    7.9510   19.5770 C.2    94  ILE94       0.2592
     77  O         -9.0730    8.6080   19.3210 O.2    94  ILE94      -0.2718
     78  CB       -11.6810    8.5370   17.7470 C.3    94  ILE94       0.0266
     79  CG1      -12.9880    9.2530   17.4190 C.3    94  ILE94       0.0019
     80  CG2      -11.6810    7.1350   17.1490 C.3    94  ILE94       0.0020
     81  CD1      -13.1660    9.5820   15.9610 C.3    94  ILE94       0.0001
     82  N        -10.0130    6.7450   20.1190 N.am   95  ASP95      -0.1974
     83  CA        -8.7310    6.1410   20.4820 C.3    95  ASP95       0.1709
     84  C         -9.1180    4.6840   20.6680 C.2    95  ASP95       0.2293
     85  O        -10.3030    4.3780   20.8690 O.2    95  ASP95      -0.2864
     86  CB        -8.2790    6.7320   21.8250 C.3    95  ASP95       0.1436
     87  CG        -6.8230    6.5280   22.1240 C.2    95  ASP95       0.3671
     88  OD1       -6.3330    5.3990   22.1480 O.co2  95  ASP95      -0.2456
     89  OD2       -6.1590    7.5170   22.4320 O.co2  95  ASP95      -0.2456
     90  N         -7.6420    2.9120   23.0000 N.3    97  ARG97      -0.1245
     91  CA        -7.5050    2.7280   24.4270 C.3    97  ARG97       0.1563
     92  C         -8.7420    3.3050   25.1300 C.2    97  ARG97       0.2260
     93  O         -9.5990    3.9480   24.5210 O.2    97  ARG97      -0.2867
     94  CB        -6.2430    3.4120   24.9280 C.3    97  ARG97       0.0307
     95  CG        -4.9340    2.7360   24.5380 C.3    97  ARG97       0.0489
     96  CD        -3.7140    3.6580   24.8520 C.3    97  ARG97       0.2205
     97  NE        -3.5530    3.9600   26.2850 N.pl3  97  ARG97      -0.0865
     98  CZ        -3.0110    5.0710   26.7890 C.cat  97  ARG97       0.5346
     99  NH1       -2.5540    6.0280   25.9880 N.pl3  97  ARG97       0.1354
    100  NH2       -2.9420    5.2260   28.1080 N.pl3  97  ARG97       0.1354
    101  N        -11.8280    2.9520   18.8700 N.3   114  ARG114     -0.1231
    102  CA       -11.4070    2.5270   17.5450 C.3   114  ARG114      0.1694
    103  C        -10.0710    3.1530   17.2320 C.2   114  ARG114      0.2592
    104  O         -9.8050    4.2980   17.5960 O.2   114  ARG114     -0.2718
    105  CB       -12.3810    3.0540   16.4820 C.3   114  ARG114      0.0321
    106  CG       -13.4960    2.1200   16.0800 C.3   114  ARG114      0.0489
    107  CD       -12.9740    0.9390   15.2840 C.3   114  ARG114      0.2205
    108  NE       -12.1870    1.3550   14.1210 N.pl3 114  ARG114     -0.0865
    109  CZ       -12.6360    1.3560   12.8650 C.cat 114  ARG114      0.5346
    110  NH1      -13.8810    0.9710   12.5890 N.pl3 114  ARG114      0.1354
    111  NH2      -11.8210    1.6980   11.8710 N.pl3 114  ARG114      0.1354
    112  N         -9.2100    2.3860   16.5910 N.am  115  PHE115     -0.1962
    113  CA        -7.9490    2.9320   16.1530 C.3   115  PHE115      0.1771
    114  C         -8.3710    3.3800   14.7510 C.2   115  PHE115      0.2619
    115  O         -8.9800    2.6020   14.0140 O.2   115  PHE115     -0.2715
    116  CB        -6.8710    1.8470   16.1100 C.3   115  PHE115      0.0574
    117  CG        -6.2160    1.6080   17.4300 C.ar  115  PHE115     -0.0200
    118  CD1       -5.6010    2.6630   18.1180 C.ar  115  PHE115     -0.0042
    119  CD2       -6.2370    0.3490   18.0130 C.ar  115  PHE115     -0.0042
    120  CE1       -5.0180    2.4690   19.3610 C.ar  115  PHE115     -0.0003
    121  CE2       -5.6520    0.1460   19.2680 C.ar  115  PHE115     -0.0003
    122  CZ        -5.0440    1.2150   19.9360 C.ar  115  PHE115     -0.0000
    123  N         -8.1700    4.6540   14.4260 N.am  116  VAL116     -0.1977
    124  CA        -8.5660    5.1440   13.1200 C.3   116  VAL116      0.1596
    125  C         -7.5810    4.7560   12.0160 C.2   116  VAL116      0.2287
    126  O         -6.3890    4.5570   12.2480 O.2   116  VAL116     -0.2864
    127  CB        -8.7390    6.6800   13.1010 C.3   116  VAL116      0.0276
    128  CG1       -9.4960    7.1520   14.3170 C.3   116  VAL116      0.0022
    129  CG2       -7.4050    7.3630   12.9920 C.3   116  VAL116      0.0022
    130  N         -3.2350   13.5460   18.6090 N.3   138  ASP138     -0.1225
    131  CA        -2.1760   13.3180   19.5660 C.3   138  ASP138      0.1805
    132  C         -1.8100   11.8490   19.4910 C.2   138  ASP138      0.2598
    133  O         -1.4080   11.2610   20.4690 O.2   138  ASP138     -0.2718
    134  CB        -2.6430   13.7070   20.9780 C.3   138  ASP138      0.1424
    135  CG        -1.5020   13.7370   21.9960 C.2   138  ASP138      0.3668
    136  OD1       -0.3810   14.1730   21.6720 O.co2 138  ASP138     -0.2456
    137  OD2       -1.7290   13.3210   23.1420 O.co2 138  ASP138     -0.2456
    138  N         -1.8780   11.2730   18.3040 N.am  139  VAL139     -0.1966
    139  CA        -1.5810    9.8530   18.1260 C.3   139  VAL139      0.1727
    140  C         -0.1040    9.5450   18.3060 C.2   139  VAL139      0.2616
    141  O          0.7440   10.3630   17.9760 O.2   139  VAL139     -0.2715
    142  CB        -2.0540    9.3220   16.7270 C.3   139  VAL139      0.0290
    143  CG1       -3.5440    9.5470   16.5430 C.3   139  VAL139      0.0023
    144  CG2       -1.2900    9.9720   15.6040 C.3   139  VAL139      0.0023
    145  N          0.1900    8.3870   18.8820 N.am  140  ARG140     -0.1963
    146  CA         1.5570    7.9280   19.0960 C.3   140  ARG140      0.1729
    147  C          1.5540    6.4200   18.8960 C.2   140  ARG140      0.2616
    148  O          0.6770    5.7170   19.4000 O.2   140  ARG140     -0.2715
    149  CB         2.0610    8.2850   20.4930 C.3   140  ARG140      0.0348
    150  CG         3.5140    7.8850   20.7770 C.3   140  ARG140      0.0492
    151  CD         4.0040    8.4330   22.1250 C.3   140  ARG140      0.2205
    152  NE         3.2240    7.9440   23.2650 N.pl3 140  ARG140     -0.0865
    153  CZ         3.2700    6.6950   23.7330 C.cat 140  ARG140      0.5346
    154  NH1        4.0640    5.7830   23.1690 N.pl3 140  ARG140      0.1354
    155  NH2        2.5130    6.3480   24.7660 N.pl3 140  ARG140      0.1354
    156  N          2.5230    5.9450   18.1170 N.am  141  SER141     -0.1950
    157  CA         2.6800    4.5290   17.7770 C.3   141  SER141      0.1924
    158  C          2.8530    3.5770   18.9770 C.2   141  SER141      0.2314
    159  O          3.8470    3.7280   19.7390 O.2   141  SER141     -0.2863
    160  CB         3.8510    4.3730   16.7890 C.3   141  SER141      0.2116
    161  OG         3.5990    5.0140   15.5780 O.3   141  SER141     -0.2180
    162  N          3.0620    8.2890   11.5650 N.3   150  ASN150     -0.1240
    163  CA         2.0970    9.0970   12.3130 C.3   150  ASN150      0.1653
    164  C          1.7910   10.3510   11.5410 C.2   150  ASN150      0.2266
    165  O          0.6210   10.7000   11.3550 O.2   150  ASN150     -0.2867
    166  CB         2.6440    9.4800   13.6900 C.3   150  ASN150      0.1155
    167  CG         2.8360    8.2790   14.5970 C.2   150  ASN150      0.2627
    168  OD1        3.6190    8.3180   15.5480 O.2   150  ASN150     -0.2716
    169  ND2        2.1380    7.1980   14.3000 N.am  150  ASN150     -0.0877
    170  N         -0.3350    9.7760    8.6470 N.3   153  LEU153     -0.1245
    171  CA        -1.7400    9.5720    9.0340 C.3   153  LEU153      0.1561
    172  C         -2.4240   10.9090    9.3180 C.2   153  LEU153      0.2260
    173  O         -3.5610   11.1270    8.9090 O.2   153  LEU153     -0.2867
    174  CB        -1.8460    8.6750   10.2750 C.3   153  LEU153      0.0270
    175  CG        -3.2610    8.3990   10.8090 C.3   153  LEU153      0.0019
    176  CD1       -4.0560    7.6420    9.7660 C.3   153  LEU153      0.0001
    177  CD2       -3.2340    7.6380   12.1330 C.3   153  LEU153      0.0001
    178  N          0.3220   16.9170   16.6420 N.3   169  LYS169     -0.1245
    179  CA         1.5120   16.5730   17.3990 C.3   169  LYS169      0.1561
    180  C          2.6810   16.6960   16.3990 C.2   169  LYS169      0.2260
    181  O          2.6200   16.1350   15.3080 O.2   169  LYS169     -0.2867
    182  CB         1.3580   15.1250   17.8470 C.3   169  LYS169      0.0271
    183  CG         2.3340   14.6420   18.8470 C.3   169  LYS169      0.0035
    184  CD         2.2090   13.1560   18.9320 C.3   169  LYS169      0.0206
    185  CE         2.9430   12.5940   20.1180 C.3   169  LYS169      0.1093
    186  NZ         2.2060   12.9280   21.3830 N.3   169  LYS169     -0.1314
@<TRIPOS>BOND
     1   170   171    1
     2   173   172    2
     3   171   172    1
     4   171   174    1
     5   176   175    1
     6   174   175    1
     7   175   177    1
     8   165   164    2
     9   164   163    1
    10   162   163    1
    11   111   109    1
    12   125   126    2
    13   125   124    1
    14   163   166    1
    15   110   109    1
    16   109   108    2
    17   129   127    1
    18   127   124    1
    19   127   128    1
    20   124   123    1
    21   166   167    1
    22    37    35    1
    23   115   114    2
    24   108   107    1
    25   169   167   am
    26   123   114   am
    27   167   168    2
    28   114   113    1
    29   107   106    1
    30   181   180    2
    31    35    34    1
    32   161   160    1
    33   144   142    1
    34    36    34    1
    35    81    79    1
    36   106   105    1
    37   116   113    1
    38   116   117    1
    39   113   112    1
    40    34    31    1
    41   180   179    1
    42   105   102    1
    43   143   142    1
    44   112   103   am
    45   178   179    1
    46   142   139    1
    47   160   157    1
    48    80    78    1
    49   103   102    1
    50   103   104    2
    51   179   182    1
    52    79    78    1
    53   117   119   ar
    54   117   118   ar
    55   102   101    1
    56    31    30    1
    57    31    32    1
    58    78    75    1
    59   157   156    1
    60   157   158    1
    61   182   183    1
    62    30    20   am
    63   141   140    2
    64   119   121   ar
    65   156   147   am
    66   118   120   ar
    67   139   138    1
    68   139   140    1
    69    18    19    1
    70   138   132   am
    71   140   145   am
    72    33    32    2
    73    32    38   am
    74   130   131    1
    75    20    19    1
    76    20    21    2
    77   183   184    1
    78   145   146    1
    79   147   146    1
    80   147   148    2
    81    19    22    1
    82   184   185    1
    83   158   159    2
    84   146   149    1
    85    75    76    1
    86    75    74    1
    87    38    39    1
    88   121   122   ar
    89    77    76    2
    90   120   122   ar
    91   132   131    1
    92   132   133    2
    93   131   134    1
    94    76    82   am
    95   185   186    1
    96    82    83    1
    97    39    40    1
    98    22    23    1
    99    83    84    1
   100    83    86    1
   101   149   150    1
   102    84    85    2
   103   150   151    1
   104   134   135    1
   105    24    23   ar
   106    24    26   ar
   107    23    25   ar
   108    40    42   am
   109    40    41    2
   110   136   135   ar
   111    26    28   ar
   112    86    87    1
   113    42    43    1
   114   135   137   ar
   115    25    27   ar
   116    87    88   ar
   117    87    89   ar
   118   151   152    1
   119    47    46    1
   120    28    27   ar
   121    28    29    1
   122    46    43    1
   123    90    91    1
   124    43    44    1
   125   154   153    1
   126   152   153    2
   127   153   155    1
   128    91    94    1
   129    91    92    1
   130    44    48   am
   131    44    45    2
   132    93    92    2
   133    48    49    1
   134    95    96    1
   135    95    94    1
   136    17    15    1
   137    96    97    1
   138    52    49    1
   139    49    50    1
   140    51    50    2
   141    99    98    1
   142    13    12    2
   143    15    16    1
   144    15    14    1
   145    97    98    2
   146    50    53   am
   147    73    72   ar
   148    73    71   ar
   149    98   100    1
   150    14    11    1
   151    11    12    1
   152    11    10    1
   153    72    70   ar
   154    53    54    1
   155    53    59    1
   156    71    69   ar
   157    61    60    1
   158    61    62    1
   159    60    55   am
   160    70    69   ar
   161    55    54    1
   162    55    56    2
   163    54    57    1
   164    59    58    1
   165    69    68    1
   166    63    62    2
   167    66    67    2
   168    66    65    1
   169    58    57    1
   170     9     7   am
   171     8     7    2
   172     4     3    2
   173    68    65    1
   174     7     6    1
   175    65    64    1
   176     2     3    1
   177     2     1    1
   178     2     5    1
   179     6     5    1
