@<TRIPOS>MOLECULE
tmp/1b46A00.pdb
 252 246 0 0 0
SMALL
GASTEIGER

@<TRIPOS>ATOM
      1  N          8.5180   23.5970   11.7410 N.3    32  GLU32      -0.1231
      2  CA         8.3750   22.4700   12.6540 C.3    32  GLU32       0.1699
      3  C          7.0440   21.7740   12.5000 C.2    32  GLU32       0.2593
      4  O          6.9880   20.5740   12.7760 O.2    32  GLU32      -0.2718
      5  CB         8.6010   22.8620   14.1230 C.3    32  GLU32       0.0402
      6  CG         7.5330   23.8430   14.6350 C.3    32  GLU32       0.1161
      7  CD         8.0590   24.6920   15.7790 C.2    32  GLU32       0.3649
      8  OE1        8.2190   24.1880   16.9170 O.co2  32  GLU32      -0.2457
      9  OE2        8.3830   25.8740   15.5600 O.co2  32  GLU32      -0.2457
     10  N          5.9760   22.4760   12.0840 N.am   33  GLY33      -0.1942
     11  CA         4.6480   21.8690   12.1320 C.3    33  GLY33       0.2014
     12  C          4.1850   20.8980   11.0820 C.2    33  GLY33       0.2638
     13  O          4.8130   20.7910   10.0360 O.2    33  GLY33      -0.2714
     14  N          2.9880   20.3170   11.3330 N.am   34  VAL34      -0.1977
     15  CA         2.3710   19.4020   10.3610 C.3    34  VAL34       0.1596
     16  C          2.0480   20.1580    9.0860 C.2    34  VAL34       0.2287
     17  O          2.3940   19.6810    7.9820 O.2    34  VAL34      -0.2864
     18  CB         1.1630   18.6720   10.9530 C.3    34  VAL34       0.0276
     19  CG1        0.3300   17.9230    9.8910 C.3    34  VAL34       0.0022
     20  CG2        1.6660   17.6290   11.9810 C.3    34  VAL34       0.0022
     21  N          5.2290   20.8080    7.1410 N.3    37  SER37      -0.1217
     22  CA         5.8160   19.5630    6.6330 C.3    37  SER37       0.1889
     23  C          5.0190   19.0090    5.4790 C.2    37  SER37       0.2288
     24  O          5.5480   18.3870    4.5540 O.2    37  SER37      -0.2866
     25  CB         5.9040   18.5370    7.7830 C.3    37  SER37       0.2089
     26  OG         6.7560   19.0690    8.7870 O.3    37  SER37      -0.2183
     27  N          7.1500   18.2270    2.0310 N.3    41  ARG41      -0.1245
     28  CA         7.3990   16.9240    1.3400 C.3    41  ARG41       0.1563
     29  C          7.1810   17.0160   -0.1620 C.2    41  ARG41       0.2260
     30  O          7.8690   16.2890   -0.9240 O.2    41  ARG41      -0.2867
     31  CB         6.4810   15.8750    1.9500 C.3    41  ARG41       0.0307
     32  CG         6.9160   15.4620    3.3520 C.3    41  ARG41       0.0489
     33  CD         6.1230   14.2390    3.7990 C.3    41  ARG41       0.2205
     34  NE         4.6880   14.4890    3.8480 N.pl3  41  ARG41      -0.0865
     35  CZ         4.1070   15.1200    4.8650 C.cat  41  ARG41       0.5346
     36  NH1        4.8090   15.5400    5.9220 N.pl3  41  ARG41       0.1354
     37  NH2        2.8070   15.3520    4.8560 N.pl3  41  ARG41       0.1354
     38  N         14.2300   22.7540   14.8490 N.3   109  TYR109     -0.1241
     39  CA        14.6720   21.3950   14.7330 C.3   109  TYR109      0.1605
     40  C         16.1910   21.2820   14.7670 C.2   109  TYR109      0.2264
     41  O         16.6960   20.2360   14.3840 O.2   109  TYR109     -0.2867
     42  CB        14.0430   20.6870   13.5100 C.3   109  TYR109      0.0534
     43  CG        12.7890   19.8930   13.8450 C.ar  109  TYR109     -0.0201
     44  CD1       12.8590   18.5960   14.3350 C.ar  109  TYR109     -0.0009
     45  CD2       11.5210   20.4310   13.5790 C.ar  109  TYR109     -0.0009
     46  CE1       11.6990   17.8740   14.6370 C.ar  109  TYR109      0.0417
     47  CE2       10.3630   19.6870   13.8430 C.ar  109  TYR109      0.0417
     48  CZ        10.4690   18.4190   14.3570 C.ar  109  TYR109      0.1957
     49  OH         9.3190   17.6880   14.6260 O.3   109  TYR109     -0.2866
     50  N         12.4030   13.2860    7.4780 N.3   161  HIS161     -0.1227
     51  CA        11.9000   14.5360    8.0530 C.3   161  HIS161      0.1737
     52  C         12.3800   15.7750    7.3270 C.2   161  HIS161      0.2438
     53  O         13.5270   15.7790    6.8640 O.2   161  HIS161     -0.2733
     54  CB        12.3970   14.5590    9.4940 C.3   161  HIS161      0.0758
     55  CG        11.7790   15.6800   10.2780 C.ar  161  HIS161      0.0818
     56  ND1       12.4190   16.8720   10.5670 N.ar  161  HIS161     -0.2268
     57  CD2       10.5150   15.7220   10.7790 C.ar  161  HIS161      0.1154
     58  CE1       11.5610   17.6440   11.2160 C.ar  161  HIS161      0.1986
     59  NE2       10.4190   16.9740   11.3870 N.ar  161  HIS161     -0.2212
     60  N         11.5750   16.8240    7.1990 N.am  162  PRO162     -0.2729
     61  CA        11.9610   18.0230    6.4600 C.3   162  PRO162      0.1401
     62  C         13.2290   18.6970    6.8630 C.2   162  PRO162      0.2269
     63  O         13.9190   19.2890    6.0050 O.2   162  PRO162     -0.2865
     64  CB        10.7850   18.9880    6.6040 C.3   162  PRO162      0.0296
     65  CG         9.6200   18.0620    6.7630 C.3   162  PRO162      0.0237
     66  CD        10.1680   16.9320    7.6550 C.3   162  PRO162      0.0939
     67  N         -8.1260   18.8760    5.7640 N.3   245  TYR245     -0.1227
     68  CA        -7.0470   18.7550    6.7310 C.3   245  TYR245      0.1736
     69  C         -7.5160   17.6940    7.7220 C.2   245  TYR245      0.2595
     70  O         -8.7100   17.3100    7.6410 O.2   245  TYR245     -0.2718
     71  CB        -6.8440   20.1160    7.4270 C.3   245  TYR245      0.0548
     72  CG        -5.6360   20.0170    8.3640 C.ar  245  TYR245     -0.0200
     73  CD1       -4.3890   19.7160    7.8370 C.ar  245  TYR245     -0.0009
     74  CD2       -5.7660   20.2420    9.7180 C.ar  245  TYR245     -0.0009
     75  CE1       -3.2740   19.5920    8.6570 C.ar  245  TYR245      0.0417
     76  CE2       -4.6480   20.1500   10.5570 C.ar  245  TYR245      0.0417
     77  CZ        -3.4360   19.8130   10.0140 C.ar  245  TYR245      0.1957
     78  OH        -2.3050   19.6950   10.8140 O.3   245  TYR245     -0.2866
     79  N         -6.6400   17.0560    8.4840 N.am  246  ASN246     -0.1960
     80  CA        -7.0470   15.9840    9.3790 C.3   246  ASN246      0.1819
     81  C         -7.0850   16.4580   10.8220 C.2   246  ASN246      0.2621
     82  O         -6.2880   16.0900   11.6650 O.2   246  ASN246     -0.2715
     83  CB        -6.1420   14.7660    9.2150 C.3   246  ASN246      0.1195
     84  CG        -4.6640   15.0540    9.2610 C.2   246  ASN246      0.2630
     85  OD1       -4.2060   16.1830    9.4240 O.2   246  ASN246     -0.2716
     86  ND2       -3.8850   13.9670    9.1610 N.am  246  ASN246     -0.0877
     87  N         -8.0500   17.3090   11.0490 N.am  247  ASN247     -0.1972
     88  CA        -8.5420   17.8790   12.2840 C.3   247  ASN247      0.1688
     89  C        -10.0490   17.9800   11.9240 C.2   247  ASN247      0.2292
     90  O        -10.3860   18.4790   10.7940 O.2   247  ASN247     -0.2864
     91  CB        -7.9420   19.2220   12.6030 C.3   247  ASN247      0.1181
     92  CG        -7.0300   19.5090   13.7410 C.2   247  ASN247      0.2629
     93  OD1       -6.3560   18.7760   14.4460 O.2   247  ASN247     -0.2716
     94  ND2       -6.9550   20.8220   14.0720 N.am  247  ASN247     -0.0877
     95  N         -2.9280    6.9040   13.8790 N.3   269  TYR269     -0.1241
     96  CA        -2.0900    8.1080   13.7760 C.3   269  TYR269      0.1605
     97  C         -1.2410    8.2530   15.0130 C.2   269  TYR269      0.2264
     98  O         -1.7600    8.2190   16.1460 O.2   269  TYR269     -0.2867
     99  CB        -3.0500    9.3090   13.6710 C.3   269  TYR269      0.0534
    100  CG        -2.5250   10.5890   13.0830 C.ar  269  TYR269     -0.0201
    101  CD1       -1.3100   10.7020   12.3910 C.ar  269  TYR269     -0.0009
    102  CD2       -3.3490   11.7150   13.1900 C.ar  269  TYR269     -0.0009
    103  CE1       -0.9420   11.9440   11.8890 C.ar  269  TYR269      0.0417
    104  CE2       -2.9680   12.9490   12.6740 C.ar  269  TYR269      0.0417
    105  CZ        -1.7590   13.0410   12.0250 C.ar  269  TYR269      0.1957
    106  OH        -1.3650   14.2570   11.4620 O.3   269  TYR269     -0.2866
    107  N         -4.2730   27.3090   19.3940 N.3   366  ASN366     -0.1240
    108  CA        -4.2650   27.9310   18.0560 C.3   366  ASN366      0.1653
    109  C         -5.6570   27.9010   17.4710 C.2   366  ASN366      0.2266
    110  O         -6.4720   26.9790   17.6210 O.2   366  ASN366     -0.2867
    111  CB        -3.2110   27.1780   17.2120 C.3   366  ASN366      0.1155
    112  CG        -3.5120   25.6880   17.1480 C.2   366  ASN366      0.2627
    113  OD1       -3.4790   24.9650   18.1350 O.2   366  ASN366     -0.2716
    114  ND2       -3.8130   25.1930   15.9470 N.am  366  ASN366     -0.0877
    115  N        -10.2010   22.9920   18.6890 N.3   371  HIS371     -0.1241
    116  CA        -9.4660   23.3650   19.9070 C.3   371  HIS371      0.1621
    117  C        -10.2780   24.3050   20.7990 C.2   371  HIS371      0.2264
    118  O        -10.1150   24.2080   22.0140 O.2   371  HIS371     -0.2867
    119  CB        -8.0740   23.9730   19.6440 C.3   371  HIS371      0.0745
    120  CG        -7.2080   23.0530   18.8150 C.ar  371  HIS371      0.0817
    121  ND1       -7.1760   21.7060   19.0350 N.ar  371  HIS371     -0.2268
    122  CD2       -6.4100   23.2990   17.7290 C.ar  371  HIS371      0.1154
    123  CE1       -6.3480   21.1350   18.1410 C.ar  371  HIS371      0.1986
    124  NE2       -5.9160   22.0970   17.3270 N.ar  371  HIS371     -0.2212
    125  N         -1.6090   29.9300   14.1310 N.3   397  TRP397     -0.1241
    126  CA        -0.5660   28.9200   14.2450 C.3   397  TRP397      0.1605
    127  C          0.8720   29.3710   14.3720 C.2   397  TRP397      0.2264
    128  O          1.5840   28.9450   15.2780 O.2   397  TRP397     -0.2867
    129  CB        -0.6720   27.9770   13.0350 C.3   397  TRP397      0.0550
    130  CG         0.2410   26.7800   12.9620 C.ar  397  TRP397      0.0003
    131  CD1        1.1670   26.5350   11.9740 C.ar  397  TRP397      0.0946
    132  CD2        0.2560   25.6230   13.8030 C.ar  397  TRP397      0.0152
    133  NE1        1.7970   25.3310   12.1860 N.ar  397  TRP397     -0.2442
    134  CE2        1.2440   24.7390   13.3000 C.ar  397  TRP397      0.0810
    135  CE3       -0.4570   25.2500   14.9630 C.ar  397  TRP397      0.0012
    136  CZ2        1.5480   23.5200   13.8920 C.ar  397  TRP397      0.0191
    137  CZ3       -0.1910   24.0160   15.5380 C.ar  397  TRP397      0.0001
    138  CH2        0.8020   23.1640   14.9990 C.ar  397  TRP397      0.0015
    139  N          1.3310   31.2410   17.7150 N.3   400  PHE400     -0.1227
    140  CA         1.1820   30.2240   18.7540 C.3   400  PHE400      0.1736
    141  C          2.4580   29.4230   18.9650 C.2   400  PHE400      0.2595
    142  O          2.8600   29.2310   20.1280 O.2   400  PHE400     -0.2718
    143  CB         0.0310   29.3040   18.3420 C.3   400  PHE400      0.0547
    144  CG        -0.1930   27.9860   19.0370 C.ar  400  PHE400     -0.0202
    145  CD1       -0.7560   27.9840   20.3180 C.ar  400  PHE400     -0.0042
    146  CD2        0.1510   26.7830   18.4590 C.ar  400  PHE400     -0.0042
    147  CE1       -1.0420   26.7850   20.9550 C.ar  400  PHE400     -0.0003
    148  CE2       -0.0890   25.5730   19.1020 C.ar  400  PHE400     -0.0003
    149  CZ        -0.7100   25.5890   20.3490 C.ar  400  PHE400     -0.0000
    150  N          3.0940   28.9270   17.8900 N.am  401  LEU401     -0.1980
    151  CA         4.3430   28.1980   18.0810 C.3   401  LEU401      0.1596
    152  C          5.4380   29.0990   18.6410 C.2   401  LEU401      0.2287
    153  O          6.2280   28.6820   19.5190 O.2   401  LEU401     -0.2864
    154  CB         4.7810   27.5570   16.7490 C.3   401  LEU401      0.0297
    155  CG         3.8280   26.4510   16.2290 C.3   401  LEU401      0.0022
    156  CD1        4.2460   26.0040   14.8320 C.3   401  LEU401      0.0001
    157  CD2        3.8020   25.2700   17.2070 C.3   401  LEU401      0.0001
    158  N          4.9730   29.5660   22.3870 N.3   404  ARG404     -0.1245
    159  CA         5.4040   28.3890   23.1180 C.3   404  ARG404      0.1563
    160  C          6.9060   28.3000   23.1820 C.2   404  ARG404      0.2260
    161  O          7.4560   27.9940   24.2590 O.2   404  ARG404     -0.2867
    162  CB         4.7150   27.1210   22.5580 C.3   404  ARG404      0.0307
    163  CG         3.1980   27.1450   22.7580 C.3   404  ARG404      0.0489
    164  CD         2.4690   26.0530   21.9610 C.3   404  ARG404      0.2205
    165  NE         2.9840   24.7220   22.3620 N.pl3 404  ARG404     -0.0865
    166  CZ         2.8860   23.6530   21.5600 C.cat 404  ARG404      0.5346
    167  NH1        2.3640   23.7820   20.3360 N.pl3 404  ARG404      0.1354
    168  NH2        3.3900   22.4820   21.9790 N.pl3 404  ARG404      0.1354
    169  N         -2.8180   24.2930   24.6720 N.3   413  ARG413     -0.1245
    170  CA        -3.2920   23.1220   23.9570 C.3   413  ARG413      0.1563
    171  C         -2.1060   22.6860   23.1120 C.2   413  ARG413      0.2260
    172  O         -1.3390   23.5410   22.6310 O.2   413  ARG413     -0.2867
    173  CB        -4.5040   23.6250   23.1690 C.3   413  ARG413      0.0307
    174  CG        -5.0980   22.8070   22.0990 C.3   413  ARG413      0.0489
    175  CD        -4.3000   23.0560   20.7980 C.3   413  ARG413      0.2205
    176  NE        -4.0240   21.7190   20.3580 N.pl3 413  ARG413     -0.0865
    177  CZ        -3.2010   21.4250   19.3350 C.cat 413  ARG413      0.5346
    178  NH1       -2.6260   22.3530   18.5920 N.pl3 413  ARG413      0.1354
    179  NH2       -3.0870   20.1270   19.1420 N.pl3 413  ARG413      0.1354
    180  N         -0.1980   19.2180   20.5760 N.3   415  GLY415     -0.1210
    181  CA        -0.2220   17.9260   19.8920 C.3   415  GLY415      0.1956
    182  C          1.1870   17.6730   19.3600 C.2   415  GLY415      0.2612
    183  O          1.7670   18.5760   18.7500 O.2   415  GLY415     -0.2717
    184  N          1.6530   16.4340   19.5280 N.am  416  TRP416     -0.1962
    185  CA         2.9240   16.0620   18.9170 C.3   416  TRP416      0.1771
    186  C          2.7010   14.8150   18.0770 C.2   416  TRP416      0.2620
    187  O          2.0540   13.8610   18.5670 O.2   416  TRP416     -0.2715
    188  CB         4.0310   15.8020   19.9640 C.3   416  TRP416      0.0590
    189  CG         5.3750   15.5020   19.3160 C.ar  416  TRP416      0.0006
    190  CD1        5.9050   14.2540   19.1240 C.ar  416  TRP416      0.0946
    191  CD2        6.3550   16.4510   18.8560 C.ar  416  TRP416      0.0152
    192  NE1        7.1560   14.4000   18.5370 N.ar  416  TRP416     -0.2442
    193  CE2        7.4370   15.7190   18.3620 C.ar  416  TRP416      0.0810
    194  CE3        6.4030   17.8400   18.8340 C.ar  416  TRP416      0.0012
    195  CZ2        8.5760   16.3450   17.8320 C.ar  416  TRP416      0.0191
    196  CZ3        7.5210   18.4810   18.2900 C.ar  416  TRP416      0.0001
    197  CH2        8.5980   17.7220   17.8300 C.ar  416  TRP416      0.0015
    198  N          3.1290   14.8940   16.8040 N.am  417  CYS417     -0.1954
    199  CA         3.0550   13.7160   15.9250 C.3   417  CYS417      0.1843
    200  C          4.4740   13.2020   15.6700 C.2   417  CYS417      0.2625
    201  O          5.4100   14.0190   15.4880 O.2   417  CYS417     -0.2714
    202  CB         2.4860   14.1070   14.5550 C.3   417  CYS417      0.0997
    203  SG         0.7180   14.5180   14.6520 S.3   417  CYS417     -0.0797
    204  N          4.6790   11.9070   15.6330 N.am  418  ALA418     -0.1963
    205  CA         6.0120   11.3130   15.4450 C.3   418  ALA418      0.1728
    206  C          6.6350   11.7520   14.1250 C.2   418  ALA418      0.2616
    207  O          5.9080   11.9680   13.1540 O.2   418  ALA418     -0.2715
    208  CB         5.8820    9.7850   15.3870 C.3   418  ALA418      0.0334
    209  N          7.9540   11.9220   14.1550 N.am  419  ASP419     -0.1971
    210  CA         8.6890   12.2570   12.9420 C.3   419  ASP419      0.1709
    211  C          9.3030   10.9700   12.3650 C.2   419  ASP419      0.2293
    212  O          9.5120   10.9150   11.1500 O.2   419  ASP419     -0.2864
    213  CB         9.8110   13.2500   13.2300 C.3   419  ASP419      0.1436
    214  CG         9.2450   14.5570   13.7770 C.2   419  ASP419      0.3671
    215  OD1        8.2090   14.9680   13.2120 O.co2 419  ASP419     -0.2456
    216  OD2        9.8380   15.1760   14.7130 O.co2 419  ASP419     -0.2456
    217  N         12.9350   21.3710   20.6700 N.3   436  ASN436     -0.1240
    218  CA        11.5120   21.1240   20.6110 C.3   436  ASN436      0.1653
    219  C         10.8660   21.0860   22.0040 C.2   436  ASN436      0.2266
    220  O          9.6480   20.8860   22.0550 O.2   436  ASN436     -0.2867
    221  CB        11.2250   19.7360   19.9870 C.3   436  ASN436      0.1155
    222  CG        11.7400   19.6410   18.5720 C.2   436  ASN436      0.2627
    223  OD1       12.6740   18.9070   18.2640 O.2   436  ASN436     -0.2716
    224  ND2       11.1320   20.3420   17.6140 N.am  436  ASN436     -0.0877
    225  N         -4.5560   10.6470   19.0550 N.3   485  TYR485     -0.1241
    226  CA        -5.3300   11.0000   17.8840 C.3   485  TYR485      0.1605
    227  C         -5.5780    9.7850   16.9660 C.2   485  TYR485      0.2264
    228  O         -4.8280    8.8300   16.9680 O.2   485  TYR485     -0.2867
    229  CB        -4.5570   11.9670   16.9900 C.3   485  TYR485      0.0534
    230  CG        -4.3080   13.4000   17.3000 C.ar  485  TYR485     -0.0201
    231  CD1       -3.4460   13.8110   18.3110 C.ar  485  TYR485     -0.0009
    232  CD2       -4.8670   14.4010   16.5080 C.ar  485  TYR485     -0.0009
    233  CE1       -3.1660   15.1550   18.5530 C.ar  485  TYR485      0.0417
    234  CE2       -4.6040   15.7520   16.7300 C.ar  485  TYR485      0.0417
    235  CZ        -3.7530   16.1080   17.7680 C.ar  485  TYR485      0.1957
    236  OH        -3.4500   17.4210   18.0160 O.3   485  TYR485     -0.2866
    237  N          2.3080    7.9020   10.3380 N.3   504  LEU504     -0.1245
    238  CA         2.8680    9.2290   10.4250 C.3   504  LEU504      0.1561
    239  C          2.1890   10.2020    9.4380 C.2   504  LEU504      0.2260
    240  O          2.4630   11.4150    9.4620 O.2   504  LEU504     -0.2867
    241  CB         4.3850    9.3000   10.1640 C.3   504  LEU504      0.0270
    242  CG         5.2780    8.4390   11.0420 C.3   504  LEU504      0.0019
    243  CD1        6.6870    9.0360   11.1380 C.3   504  LEU504      0.0001
    244  CD2        4.7810    8.1430   12.4290 C.3   504  LEU504      0.0001
    245  N          2.6620   10.8090    6.2790 N.3   506  ASN506     -0.1240
    246  CA         3.6530   11.5220    5.4610 C.3   506  ASN506      0.1653
    247  C          3.2190   11.4110    4.0000 C.2   506  ASN506      0.2266
    248  O          3.8060   10.6630    3.2210 O.2   506  ASN506     -0.2867
    249  CB         5.0640   10.9520    5.6460 C.3   506  ASN506      0.1155
    250  CG         5.7200   11.4650    6.9260 C.2   506  ASN506      0.2627
    251  OD1        5.5550   12.6410    7.2790 O.2   506  ASN506     -0.2716
    252  ND2        6.4630   10.5570    7.5700 N.am  506  ASN506     -0.0877
@<TRIPOS>BOND
     1    30    29    2
     2    29    28    1
     3    28    31    1
     4    28    27    1
     5    31    32    1
     6   248   247    2
     7    32    33    1
     8    33    34    1
     9    34    35    2
    10   247   246    1
    11    24    23    2
    12    37    35    1
    13    35    36    1
    14   246   249    1
    15   246   245    1
    16    23    22    1
    17   249   250    1
    18    67    68    1
    19    63    62    2
    20    61    64    1
    21    61    62    1
    22    61    60    1
    23    64    65    1
    24    22    21    1
    25    22    25    1
    26    68    71    1
    27    68    69    1
    28    65    66    1
    29    53    52    2
    30   250   251    2
    31   250   252   am
    32    60    52   am
    33    60    66    1
    34    52    51    1
    35    71    72    1
    36    50    51    1
    37    70    69    2
    38    69    79   am
    39    25    26    1
    40    73    72   ar
    41    73    75   ar
    42    17    16    2
    43    51    54    1
    44    72    74   ar
    45    79    80    1
    46    75    77   ar
    47    16    15    1
    48    86    84   am
    49    83    84    1
    50    83    80    1
    51    84    85    2
    52    80    81    1
    53   239   240    2
    54   239   238    1
    55    54    55    1
    56    74    76   ar
    57    19    18    1
    58    77    76   ar
    59    77    78    1
    60    13    12    2
    61   241   238    1
    62   241   242    1
    63    55    56   ar
    64    55    57   ar
    65   237   238    1
    66    15    18    1
    67    15    14    1
    68    56    58   ar
    69    57    59   ar
    70    90    89    2
    71    81    87   am
    72    81    82    2
    73    18    20    1
    74   242   243    1
    75   242   244    1
    76    87    88    1
    77    12    14   am
    78    12    11    1
    79   212   211    2
    80    58    59   ar
    81   106   105    1
    82     1     2    1
    83   103   105   ar
    84   103   101   ar
    85    89    88    1
    86   131   133   ar
    87   131   130   ar
    88   105   104   ar
    89    10    11    1
    90    10     3   am
    91   133   134   ar
    92    88    91    1
    93   211   210    1
    94   101   100   ar
    95     3     2    1
    96     3     4    2
    97    91    92    1
    98     2     5    1
    99   104   102   ar
   100   210   213    1
   101   210   209    1
   102   130   129    1
   103   130   132   ar
   104   129   126    1
   105   100   102   ar
   106   100    99    1
   107   207   206    2
   108   215   214   ar
   109   213   214    1
   110   134   132   ar
   111   134   136   ar
   112    42    43    1
   113    42    39    1
   114    45    47   ar
   115    45    43   ar
   116    99    96    1
   117    92    94   am
   118    92    93    2
   119    96    95    1
   120    96    97    1
   121   214   216   ar
   122   132   135   ar
   123    47    48   ar
   124    43    44   ar
   125   136   138   ar
   126     5     6    1
   127   206   209   am
   128   206   205    1
   129   125   126    1
   130   126   127    1
   131    44    46   ar
   132    48    49    1
   133    48    46   ar
   134   127   128    2
   135    41    40    2
   136   202   203    1
   137   202   199    1
   138     6     7    1
   139    39    40    1
   140    39    38    1
   141   156   155    1
   142   135   137   ar
   143   138   137   ar
   144    97    98    2
   145   208   205    1
   146   205   204    1
   147   201   200    2
   148     9     7   ar
   149   204   200   am
   150   200   199    1
   151     7     8   ar
   152   199   198    1
   153   114   112   am
   154   155   154    1
   155   155   157    1
   156   232   234   ar
   157   232   230   ar
   158   234   235   ar
   159   154   151    1
   160   198   186   am
   161   227   228    2
   162   227   226    1
   163   229   230    1
   164   229   226    1
   165   112   111    1
   166   112   113    2
   167   111   108    1
   168   230   231   ar
   169   124   122   ar
   170   124   123   ar
   171   109   110    2
   172   109   108    1
   173   224   222   am
   174   139   140    1
   175   122   120   ar
   176   235   236    1
   177   235   233   ar
   178   197   195   ar
   179   197   196   ar
   180   195   193   ar
   181   226   225    1
   182   150   151    1
   183   150   141   am
   184   108   107    1
   185   186   187    2
   186   186   185    1
   187   151   152    1
   188   123   121   ar
   189   223   222    2
   190   196   194   ar
   191   231   233   ar
   192   143   140    1
   193   143   144    1
   194   193   192   ar
   195   193   191   ar
   196   146   144   ar
   197   146   148   ar
   198   192   190   ar
   199   222   221    1
   200   178   177    1
   201   152   153    2
   202   115   116    1
   203   183   182    2
   204   140   141    1
   205   120   121   ar
   206   120   119    1
   207   194   191   ar
   208   191   189   ar
   209   185   184    1
   210   185   188    1
   211   141   142    2
   212   144   145   ar
   213   148   149   ar
   214   190   189   ar
   215   179   177    1
   216   189   188    1
   217   177   176    2
   218   182   184   am
   219   182   181    1
   220   119   116    1
   221   181   180    1
   222   116   117    1
   223   221   218    1
   224   145   147   ar
   225   167   166    1
   226   149   147   ar
   227   176   175    1
   228   218   217    1
   229   218   219    1
   230   175   174    1
   231   117   118    2
   232   166   168    1
   233   166   165    2
   234   164   165    1
   235   164   163    1
   236   219   220    2
   237   174   173    1
   238   158   159    1
   239   162   163    1
   240   162   159    1
   241   172   171    2
   242   171   170    1
   243   159   160    1
   244   173   170    1
   245   160   161    2
   246   170   169    1
