@<TRIPOS>MOLECULE
tmp/1b48A00.pdb
 191 187 0 0 0
SMALL
GASTEIGER

@<TRIPOS>ATOM
      1  N         24.0240   12.4110   32.9580 N.3     8  TYR8       -0.1227
      2  CA        24.3590   13.7980   33.3250 C.3     8  TYR8        0.1736
      3  C         23.3280   14.3310   34.3230 C.2     8  TYR8        0.2595
      4  O         22.5780   13.5550   34.9050 O.2     8  TYR8       -0.2718
      5  CB        24.4120   14.6970   32.0760 C.3     8  TYR8        0.0548
      6  CG        25.1530   16.0150   32.2660 C.ar    8  TYR8       -0.0200
      7  CD1       26.1180   16.1710   33.2620 C.ar    8  TYR8       -0.0009
      8  CD2       24.8930   17.1040   31.4400 C.ar    8  TYR8       -0.0009
      9  CE1       26.8000   17.3800   33.4230 C.ar    8  TYR8        0.0417
     10  CE2       25.5700   18.3080   31.5900 C.ar    8  TYR8        0.0417
     11  CZ        26.5210   18.4420   32.5790 C.ar    8  TYR8        0.1957
     12  OH        27.2060   19.6300   32.7050 O.3     8  TYR8       -0.2866
     13  N         23.3130   15.6450   34.5390 N.am    9  PHE9       -0.1976
     14  CA        22.3690   16.2850   35.4570 C.3     9  PHE9        0.1639
     15  C         21.0100   16.5750   34.8090 C.2     9  PHE9        0.2290
     16  O         20.8780   16.5990   33.5750 O.2     9  PHE9       -0.2864
     17  CB        22.9400   17.6080   35.9690 C.3     9  PHE9        0.0560
     18  CG        24.1480   17.4590   36.8410 C.ar    9  PHE9       -0.0200
     19  CD1       24.0880   16.7130   38.0120 C.ar    9  PHE9       -0.0042
     20  CD2       25.3390   18.1020   36.5090 C.ar    9  PHE9       -0.0042
     21  CE1       25.1890   16.6120   38.8430 C.ar    9  PHE9       -0.0003
     22  CE2       26.4530   18.0090   37.3330 C.ar    9  PHE9       -0.0003
     23  CZ        26.3780   17.2620   38.5060 C.ar    9  PHE9       -0.0000
     24  N         23.5800   22.3640   31.3090 N.3    13  GLY13      -0.1210
     25  CA        25.0070   22.1390   31.4530 C.3    13  GLY13       0.1956
     26  C         25.8250   21.9270   30.1900 C.2    13  GLY13       0.2611
     27  O         25.6770   22.6420   29.1930 O.2    13  GLY13      -0.2717
     28  N         26.6830   20.9100   30.2510 N.am   14  ARG14      -0.1979
     29  CA        27.5860   20.5450   29.1690 C.3    14  ARG14       0.1597
     30  C         26.9760   19.6280   28.1270 C.2    14  ARG14       0.2287
     31  O         27.3670   19.6630   26.9560 O.2    14  ARG14      -0.2864
     32  CB        28.8330   19.8830   29.7510 C.3    14  ARG14       0.0334
     33  CG        29.6430   20.7790   30.6840 C.3    14  ARG14       0.0492
     34  CD        30.0550   22.0850   29.9890 C.3    14  ARG14       0.2205
     35  NE        30.8620   21.8640   28.7870 N.pl3  14  ARG14      -0.0865
     36  CZ        32.1890   21.7580   28.7870 C.cat  14  ARG14       0.5346
     37  NH1       32.8700   21.8510   29.9260 N.pl3  14  ARG14       0.1354
     38  NH2       32.8330   21.5700   27.6420 N.pl3  14  ARG14       0.1354
     39  N         27.4760    9.3040   41.4720 N.3    40  TYR40      -0.1241
     40  CA        28.7500    9.7820   40.9510 C.3    40  TYR40       0.1605
     41  C         29.8840    8.8730   41.4140 C.2    40  TYR40       0.2264
     42  O         30.6020    8.2980   40.5950 O.2    40  TYR40      -0.2867
     43  CB        29.0000   11.2230   41.4130 C.3    40  TYR40       0.0534
     44  CG        30.3930   11.7450   41.1240 C.ar   40  TYR40      -0.0201
     45  CD1       30.8700   11.8350   39.8090 C.ar   40  TYR40      -0.0009
     46  CD2       31.2460   12.1330   42.1680 C.ar   40  TYR40      -0.0009
     47  CE1       32.1600   12.2930   39.5370 C.ar   40  TYR40       0.0417
     48  CE2       32.5410   12.5940   41.9100 C.ar   40  TYR40       0.0417
     49  CZ        32.9940   12.6690   40.5900 C.ar   40  TYR40       0.1957
     50  OH        34.2820   13.0880   40.3200 O.3    40  TYR40      -0.2866
     51  N         38.7800   10.3730   33.2950 N.3    51  PHE51      -0.1227
     52  CA        39.4330   11.2200   34.2840 C.3    51  PHE51       0.1736
     53  C         38.4550   11.5810   35.3960 C.2    51  PHE51       0.2596
     54  O         38.6730   12.5290   36.1520 O.2    51  PHE51      -0.2718
     55  CB        39.9870   12.4750   33.6070 C.3    51  PHE51       0.0547
     56  CG        40.6260   12.2050   32.2660 C.ar   51  PHE51      -0.0202
     57  CD1       41.6860   11.3120   32.1500 C.ar   51  PHE51      -0.0042
     58  CD2       40.1290   12.8040   31.1080 C.ar   51  PHE51      -0.0042
     59  CE1       42.2360   11.0180   30.8990 C.ar   51  PHE51      -0.0003
     60  CE2       40.6730   12.5170   29.8510 C.ar   51  PHE51      -0.0003
     61  CZ        41.7260   11.6230   29.7460 C.ar   51  PHE51      -0.0000
     62  N         37.3780   10.8050   35.4880 N.am   52  GLY52      -0.1942
     63  CA        36.3690   11.0170   36.5110 C.3    52  GLY52       0.2014
     64  C         35.5600   12.2890   36.3610 C.2    52  GLY52       0.2639
     65  O         35.2950   12.9700   37.3560 O.2    52  GLY52      -0.2714
     66  N         35.1360   12.5980   35.1370 N.am   53  GLN53      -0.1963
     67  CA        34.3660   13.8160   34.9060 C.3    53  GLN53       0.1733
     68  C         33.3080   13.7490   33.7950 C.2    53  GLN53       0.2616
     69  O         33.6260   13.4770   32.6300 O.2    53  GLN53      -0.2715
     70  CB        35.3140   15.0190   34.6930 C.3    53  GLN53       0.0408
     71  CG        36.5140   14.7820   33.7400 C.3    53  GLN53       0.0908
     72  CD        37.3760   16.0340   33.5090 C.2    53  GLN53       0.2608
     73  OE1       37.8000   16.3100   32.3780 O.2    53  GLN53      -0.2717
     74  NE2       37.6420   16.7860   34.5790 N.am   53  GLN53      -0.0878
     75  N         32.0490   13.9850   34.1820 N.am   54  VAL54      -0.1964
     76  CA        30.9100   13.9920   33.2500 C.3    54  VAL54       0.1712
     77  C         30.9750   15.2630   32.4210 C.2    54  VAL54       0.2458
     78  O         31.5270   16.2690   32.8710 O.2    54  VAL54      -0.2730
     79  CB        29.5440   13.9370   33.9810 C.3    54  VAL54       0.0289
     80  CG1       29.2440   12.5210   34.4030 C.3    54  VAL54       0.0023
     81  CG2       29.5380   14.8560   35.2020 C.3    54  VAL54       0.0023
     82  N         30.3210   15.2820   31.2510 N.am   55  PRO55      -0.2727
     83  CA        29.4900   14.3210   30.5170 C.3    55  PRO55       0.1402
     84  C         29.9550   12.8920   30.2840 C.2    55  PRO55       0.2269
     85  O         31.0600   12.6490   29.8150 O.2    55  PRO55      -0.2865
     86  CB        29.3080   15.0020   29.1600 C.3    55  PRO55       0.0296
     87  CG        29.3590   16.4250   29.4890 C.3    55  PRO55       0.0237
     88  CD        30.5170   16.4930   30.4360 C.3    55  PRO55       0.0939
     89  N         33.6830   10.2640   27.3080 N.3    65  THR65      -0.1203
     90  CA        33.6370   11.1590   28.4620 C.3    65  THR65       0.1994
     91  C         34.2090   12.5800   28.3010 C.2    65  THR65       0.2618
     92  O         34.2150   13.3590   29.2650 O.2    65  THR65      -0.2717
     93  CB        34.2500   10.4780   29.7190 C.3    65  THR65       0.1784
     94  OG1       33.8430   11.1770   30.9000 O.3    65  THR65      -0.2211
     95  CG2       35.7520   10.4880   29.6530 C.3    65  THR65       0.0376
     96  N         34.6640   12.9450   27.1060 N.am   66  GLN66      -0.1965
     97  CA        35.1820   14.3020   26.9340 C.3    66  GLN66       0.1733
     98  C         34.4510   15.1390   25.8820 C.2    66  GLN66       0.2617
     99  O         34.7020   15.0150   24.6830 O.2    66  GLN66      -0.2715
    100  CB        36.6880   14.2960   26.6530 C.3    66  GLN66       0.0408
    101  CG        37.5240   13.4940   27.6360 C.3    66  GLN66       0.0908
    102  CD        37.3470   13.9090   29.0810 C.2    66  GLN66       0.2608
    103  OE1       37.0270   13.0760   29.9340 O.2    66  GLN66      -0.2717
    104  NE2       37.5890   15.1860   29.3760 N.am   66  GLN66      -0.0878
    105  N         33.5260   15.9670   26.3620 N.am   67  THR67      -0.1937
    106  CA        32.7130   16.8930   25.5600 C.3    67  THR67       0.2028
    107  C         33.1380   17.1930   24.1310 C.2    67  THR67       0.2642
    108  O         32.6660   16.5480   23.2010 O.2    67  THR67      -0.2714
    109  CB        32.5690   18.2290   26.2830 C.3    67  THR67       0.1808
    110  OG1       33.8220   18.5790   26.8790 O.3    67  THR67      -0.2208
    111  CG2       31.5230   18.1370   27.3610 C.3    67  THR67       0.0379
    112  N         34.0060   18.1910   23.9610 N.am   68  ARG68      -0.1977
    113  CA        34.5000   18.5970   22.6430 C.3    68  ARG68       0.1597
    114  C         34.7130   17.3630   21.7600 C.2    68  ARG68       0.2287
    115  O         34.3320   17.3350   20.5920 O.2    68  ARG68      -0.2864
    116  CB        35.8290   19.3470   22.7890 C.3    68  ARG68       0.0334
    117  CG        35.8590   20.4720   23.8320 C.3    68  ARG68       0.0492
    118  CD        35.0400   21.7030   23.4310 C.3    68  ARG68       0.2205
    119  NE        35.7060   22.6240   22.4930 N.pl3  68  ARG68      -0.0865
    120  CZ        35.6810   22.5200   21.1600 C.cat  68  ARG68       0.5346
    121  NH1       35.0390   21.5190   20.5690 N.pl3  68  ARG68       0.1354
    122  NH2       36.2170   23.4750   20.4070 N.pl3  68  ARG68       0.1354
    123  N         29.2970   29.1830   27.1160 N.3   103  MET103     -0.1245
    124  CA        29.9900   28.8400   28.3480 C.3   103  MET103      0.1570
    125  C         29.8980   29.8210   29.5170 C.2   103  MET103      0.2261
    126  O         29.7060   29.3920   30.6600 O.2   103  MET103     -0.2867
    127  CB        31.4480   28.4770   28.0660 C.3   103  MET103      0.0387
    128  CG        31.6510   27.0230   27.6680 C.3   103  MET103      0.0595
    129  SD        30.8030   25.8880   28.8120 S.3   103  MET103     -0.1393
    130  CE        31.8830   25.9630   30.3030 C.3   103  MET103      0.0692
    131  N         26.3230   29.4210   30.7740 N.3   106  ALA106     -0.1231
    132  CA        26.1500   28.1870   31.5380 C.3   106  ALA106      0.1694
    133  C         26.7850   28.1780   32.9380 C.2   106  ALA106      0.2591
    134  O         26.3750   27.3930   33.8060 O.2   106  ALA106     -0.2718
    135  CB        26.6530   26.9970   30.7180 C.3   106  ALA106      0.0304
    136  N         27.7750   29.0500   33.1520 N.am  107  VAL107     -0.1980
    137  CA        28.4750   29.1290   34.4350 C.3   107  VAL107      0.1595
    138  C         27.9380   30.2540   35.3030 C.2   107  VAL107      0.2287
    139  O         28.0330   30.2000   36.5300 O.2   107  VAL107     -0.2864
    140  CB        29.9950   29.3520   34.2380 C.3   107  VAL107      0.0276
    141  CG1       30.7270   29.1750   35.5580 C.3   107  VAL107      0.0022
    142  CG2       30.5470   28.3890   33.2040 C.3   107  VAL107      0.0022
    143  N         26.3710   30.2760   38.9720 N.3   110  PHE110     -0.1241
    144  CA        27.2650   29.9100   40.0730 C.3   110  PHE110      0.1605
    145  C         27.9180   31.0580   40.8340 C.2   110  PHE110      0.2264
    146  O         28.1490   30.9580   42.0460 O.2   110  PHE110     -0.2867
    147  CB        28.3410   28.9600   39.5560 C.3   110  PHE110      0.0534
    148  CG        27.7880   27.6920   38.9990 C.ar  110  PHE110     -0.0203
    149  CD1       27.4360   26.6480   39.8460 C.ar  110  PHE110     -0.0042
    150  CD2       27.5850   27.5510   37.6320 C.ar  110  PHE110     -0.0042
    151  CE1       26.8870   25.4800   39.3430 C.ar  110  PHE110     -0.0003
    152  CE2       27.0370   26.3870   37.1140 C.ar  110  PHE110     -0.0003
    153  CZ        26.6850   25.3450   37.9740 C.ar  110  PHE110     -0.0000
    154  N         19.0280   23.4250   40.4930 N.3   211  TYR211     -0.1241
    155  CA        20.0800   22.9960   39.5770 C.3   211  TYR211      0.1605
    156  C         21.4320   23.5900   39.9360 C.2   211  TYR211      0.2264
    157  O         22.4670   22.9570   39.7250 O.2   211  TYR211     -0.2867
    158  CB        19.7640   23.3380   38.1250 C.3   211  TYR211      0.0534
    159  CG        20.8320   22.8160   37.1840 C.ar  211  TYR211     -0.0201
    160  CD1       21.1800   21.4620   37.1730 C.ar  211  TYR211     -0.0009
    161  CD2       21.5100   23.6750   36.3220 C.ar  211  TYR211     -0.0009
    162  CE1       22.1790   20.9780   36.3240 C.ar  211  TYR211      0.0417
    163  CE2       22.5140   23.2010   35.4640 C.ar  211  TYR211      0.0417
    164  CZ        22.8410   21.8540   35.4680 C.ar  211  TYR211      0.1957
    165  OH        23.8060   21.3820   34.5970 O.3   211  TYR211     -0.2866
    166  N         24.7990   20.4740   41.9060 N.3   215  VAL215     -0.1245
    167  CA        26.2090   20.2800   41.5670 C.3   215  VAL215      0.1561
    168  C         27.0960   20.5950   42.7760 C.2   215  VAL215      0.2260
    169  O         28.0090   19.8310   43.0990 O.2   215  VAL215     -0.2867
    170  CB        26.6380   21.1550   40.3420 C.3   215  VAL215      0.0252
    171  CG1       25.8030   20.7970   39.1200 C.3   215  VAL215      0.0019
    172  CG2       26.4940   22.6380   40.6580 C.3   215  VAL215      0.0019
    173  N         28.6360   17.0610   43.1190 N.3   219  LEU219     -0.1245
    174  CA        30.0410   17.2620   42.7650 C.3   219  LEU219      0.1561
    175  C         30.7560   18.0680   43.8530 C.2   219  LEU219      0.2260
    176  O         31.8660   18.5750   43.6390 O.2   219  LEU219     -0.2867
    177  CB        30.1670   17.9970   41.4320 C.3   219  LEU219      0.0270
    178  CG        29.8960   17.2350   40.1360 C.3   219  LEU219      0.0019
    179  CD1       30.0930   18.1930   38.9580 C.3   219  LEU219      0.0001
    180  CD2       30.8250   16.0170   40.0140 C.3   219  LEU219      0.0001
    181  N         30.8340   21.1010   45.1310 N.3   221  PHE221     -0.1241
    182  CA        31.4480   22.3820   44.7570 C.3   221  PHE221      0.1605
    183  C         31.5200   23.3830   45.9180 C.2   221  PHE221      0.2264
    184  O         31.0350   23.0640   47.0300 O.2   221  PHE221     -0.2867
    185  CB        30.6790   23.0250   43.5900 C.3   221  PHE221      0.0534
    186  CG        31.0680   22.5000   42.2300 C.ar  221  PHE221     -0.0203
    187  CD1       31.8690   21.3590   42.0970 C.ar  221  PHE221     -0.0042
    188  CD2       30.6580   23.1690   41.0730 C.ar  221  PHE221     -0.0042
    189  CE1       32.2600   20.8910   40.8240 C.ar  221  PHE221     -0.0003
    190  CE2       31.0410   22.7110   39.7950 C.ar  221  PHE221     -0.0003
    191  CZ        31.8450   21.5710   39.6720 C.ar  221  PHE221     -0.0000
@<TRIPOS>BOND
     1   122   120    1
     2   121   120    1
     3   115   114    2
     4   120   119    2
     5   114   113    1
     6   119   118    1
     7   113   116    1
     8   113   112    1
     9   116   117    1
    10   108   107    2
    11   118   117    1
    12   112   107   am
    13   107   106    1
    14    99    98    2
    15   106   109    1
    16   106   105    1
    17    98   105   am
    18    98    97    1
    19   109   110    1
    20   109   111    1
    21   100    97    1
    22   100   101    1
    23    97    96    1
    24    31    30    2
    25    96    91   am
    26   123   124    1
    27    89    90    1
    28   101   102    1
    29    38    36    1
    30   128   127    1
    31   128   129    1
    32   127   124    1
    33    30    29    1
    34    91    90    1
    35    91    92    2
    36   124   125    1
    37    90    93    1
    38    35    36    2
    39    35    34    1
    40    36    37    1
    41   129   130    1
    42   102   104   am
    43   102   103    2
    44    86    87    1
    45    86    83    1
    46    29    32    1
    47    29    28    1
    48    27    26    2
    49    87    88    1
    50   125   126    2
    51    95    93    1
    52    93    94    1
    53    61    60   ar
    54    61    59   ar
    55    32    33    1
    56    85    84    2
    57    60    58   ar
    58    34    33    1
    59    26    28   am
    60    26    25    1
    61    84    83    1
    62    88    82    1
    63    83    82    1
    64   135   132    1
    65   131   132    1
    66    59    57   ar
    67    58    56   ar
    68    82    77   am
    69    24    25    1
    70     8    10   ar
    71     8     6   ar
    72   132   133    1
    73    10    11   ar
    74     5     6    1
    75     5     2    1
    76    57    56   ar
    77     6     7   ar
    78    56    55    1
    79    73    72    2
    80    77    78    2
    81    77    76    1
    82    11    12    1
    83    11     9   ar
    84    69    68    2
    85   133   136   am
    86   133   134    2
    87     1     2    1
    88   136   137    1
    89   142   140    1
    90    76    79    1
    91    76    75    1
    92     7     9   ar
    93    51    52    1
    94     2     3    1
    95    72    71    1
    96    72    74   am
    97    16    15    2
    98    55    52    1
    99    71    70    1
   100    68    75   am
   101    68    67    1
   102    79    80    1
   103    79    81    1
   104   140   137    1
   105   140   141    1
   106    52    53    1
   107     3    13   am
   108     3     4    2
   109   137   138    1
   110    13    14    1
   111   165   164    1
   112    70    67    1
   113    15    14    1
   114    67    66    1
   115    66    64   am
   116   138   139    2
   117    53    62   am
   118    53    54    2
   119    14    17    1
   120   163   164   ar
   121   163   161   ar
   122   164   162   ar
   123    62    63    1
   124    17    18    1
   125   161   159   ar
   126   162   160   ar
   127    64    63    1
   128    64    65    2
   129    20    18   ar
   130    20    22   ar
   131    18    19   ar
   132   152   150   ar
   133   152   153   ar
   134   160   159   ar
   135   159   158    1
   136    22    23   ar
   137   150   148   ar
   138   153   151   ar
   139    19    21   ar
   140   158   155    1
   141    23    21   ar
   142   179   178    1
   143   143   144    1
   144   148   147    1
   145   148   149   ar
   146   171   170    1
   147   151   149   ar
   148    47    45   ar
   149    47    49   ar
   150   147   144    1
   151   155   156    1
   152   155   154    1
   153   191   190   ar
   154   191   189   ar
   155   157   156    2
   156   190   188   ar
   157    45    44   ar
   158   180   178    1
   159   144   145    1
   160   178   177    1
   161    50    49    1
   162   170   172    1
   163   170   167    1
   164    49    48   ar
   165    42    41    2
   166   189   187   ar
   167   145   146    2
   168    40    43    1
   169    40    41    1
   170    40    39    1
   171   188   186   ar
   172    44    43    1
   173    44    46   ar
   174   177   174    1
   175   167   166    1
   176   167   168    1
   177    48    46   ar
   178   187   186   ar
   179   186   185    1
   180   174   173    1
   181   174   175    1
   182   168   169    2
   183   185   182    1
   184   176   175    2
   185   182   181    1
   186   182   183    1
   187   183   184    2
