@<TRIPOS>MOLECULE
tmp/1b4eA00.pdb
 124 118 0 0 0
SMALL
GASTEIGER

@<TRIPOS>ATOM
      1  N        -17.8830  -31.0040   21.3100 N.3    78  PHE78      -0.1241
      2  CA       -19.1810  -30.3850   21.5790 C.3    78  PHE78       0.1605
      3  C        -20.0030  -31.3760   22.4160 C.2    78  PHE78       0.2264
      4  O        -20.1780  -32.5460   22.0910 O.2    78  PHE78      -0.2867
      5  CB       -19.9010  -30.0970   20.2710 C.3    78  PHE78       0.0534
      6  CG       -19.3060  -28.9920   19.4550 C.ar   78  PHE78      -0.0203
      7  CD1      -19.6790  -27.6830   19.7110 C.ar   78  PHE78      -0.0042
      8  CD2      -18.4270  -29.2370   18.4210 C.ar   78  PHE78      -0.0042
      9  CE1      -19.1850  -26.5840   19.0340 C.ar   78  PHE78      -0.0003
     10  CE2      -17.9130  -28.1480   17.7070 C.ar   78  PHE78      -0.0003
     11  CZ       -18.3030  -26.8680   18.0130 C.ar   78  PHE78      -0.0000
     12  N        -14.8210  -26.8070   22.6420 N.3   117  ASP117     -0.1239
     13  CA       -15.6830  -25.6250   22.3750 C.3   117  ASP117      0.1674
     14  C        -16.0790  -25.0590   23.7610 C.2   117  ASP117      0.2266
     15  O        -16.4600  -25.8510   24.5910 O.2   117  ASP117     -0.2867
     16  CB       -16.9760  -26.0430   21.6780 C.3   117  ASP117      0.1410
     17  CG       -17.8450  -24.8240   21.4320 C.2   117  ASP117      0.3668
     18  OD1      -17.3610  -23.9740   20.6800 O.co2 117  ASP117     -0.2456
     19  OD2      -18.9610  -24.7320   21.9670 O.co2 117  ASP117     -0.2456
     20  N        -24.9850  -25.0190   25.0680 N.3   122  GLU122     -0.1245
     21  CA       -25.3360  -26.4290   25.1800 C.3   122  GLU122      0.1567
     22  C        -25.5950  -26.8210   26.6370 C.2   122  GLU122      0.2260
     23  O        -26.0110  -27.9570   26.8710 O.2   122  GLU122     -0.2867
     24  CB       -24.2520  -27.3100   24.5780 C.3   122  GLU122      0.0388
     25  CG       -24.2110  -27.3490   23.0440 C.3   122  GLU122      0.1160
     26  CD       -22.7980  -27.3990   22.5250 C.2   122  GLU122      0.3649
     27  OE1      -22.0950  -28.4080   22.7620 O.co2 122  GLU122     -0.2457
     28  OE2      -22.3400  -26.4340   21.8810 O.co2 122  GLU122     -0.2457
     29  N        -16.7080  -19.8500   21.8590 N.3   164  SER164     -0.1217
     30  CA       -17.6260  -19.6210   20.7350 C.3   164  SER164      0.1889
     31  C        -18.8730  -18.8780   21.1830 C.2   164  SER164      0.2288
     32  O        -19.8630  -18.8110   20.4580 O.2   164  SER164     -0.2866
     33  CB       -18.0600  -20.9880   20.1560 C.3   164  SER164      0.2089
     34  OG       -18.6320  -21.7410   21.2100 O.3   164  SER164     -0.2183
     35  N        -13.0190  -18.0880   18.4810 N.3   191  TYR191     -0.1241
     36  CA       -13.9950  -18.0130   17.3400 C.3   191  TYR191      0.1605
     37  C        -14.1730  -16.4510   17.1860 C.2   191  TYR191      0.2264
     38  O        -15.1970  -15.9630   17.6050 O.2   191  TYR191     -0.2867
     39  CB       -15.3290  -18.5610   17.7930 C.3   191  TYR191      0.0534
     40  CG       -15.5500  -20.0450   17.8370 C.ar  191  TYR191     -0.0201
     41  CD1      -15.0200  -20.8110   18.8650 C.ar  191  TYR191     -0.0009
     42  CD2      -16.3650  -20.6750   16.9000 C.ar  191  TYR191     -0.0009
     43  CE1      -15.2830  -22.1860   18.9420 C.ar  191  TYR191      0.0417
     44  CE2      -16.6010  -22.0370   16.9470 C.ar  191  TYR191      0.0417
     45  CZ       -16.0650  -22.7680   17.9910 C.ar  191  TYR191      0.1957
     46  OH       -16.3260  -24.1170   18.0760 O.3   191  TYR191     -0.2866
     47  N        -17.4570  -14.4310   14.5500 N.3   194  LYS194     -0.1245
     48  CA       -18.5730  -15.4040   14.4890 C.3   194  LYS194      0.1561
     49  C        -19.8480  -14.6290   14.2340 C.2   194  LYS194      0.2260
     50  O        -20.1930  -13.7310   14.9750 O.2   194  LYS194     -0.2867
     51  CB       -18.6320  -16.1980   15.7830 C.3   194  LYS194      0.0271
     52  CG       -19.8370  -17.0960   15.9180 C.3   194  LYS194      0.0035
     53  CD       -19.4970  -18.1780   16.9600 C.3   194  LYS194      0.0206
     54  CE       -20.8060  -18.9670   17.2270 C.3   194  LYS194      0.1093
     55  NZ       -20.4040  -20.2210   17.9310 N.3   194  LYS194     -0.1314
     56  N        -26.5970  -22.0090   10.9810 N.3   200  TYR200     -0.1241
     57  CA       -26.3600  -22.8690   12.1460 C.3   200  TYR200      0.1605
     58  C        -27.5990  -23.7390   12.4390 C.2   200  TYR200      0.2264
     59  O        -27.5820  -24.4100   13.4780 O.2   200  TYR200     -0.2867
     60  CB       -26.1910  -21.9520   13.3910 C.3   200  TYR200      0.0534
     61  CG       -25.0440  -20.9980   13.3440 C.ar  200  TYR200     -0.0201
     62  CD1      -23.8820  -21.3350   12.6730 C.ar  200  TYR200     -0.0009
     63  CD2      -25.1190  -19.7830   14.0040 C.ar  200  TYR200     -0.0009
     64  CE1      -22.8300  -20.4680   12.6880 C.ar  200  TYR200      0.0417
     65  CE2      -24.0730  -18.9090   13.9960 C.ar  200  TYR200      0.0417
     66  CZ       -22.9300  -19.2750   13.3410 C.ar  200  TYR200      0.1957
     67  OH       -21.8690  -18.3870   13.3360 O.3   200  TYR200     -0.2866
     68  N        -26.9950  -27.4080   13.6440 N.3   203  PHE203     -0.1241
     69  CA       -26.2170  -27.4780   14.8580 C.3   203  PHE203      0.1605
     70  C        -27.0700  -27.6070   16.1150 C.2   203  PHE203      0.2264
     71  O        -26.8110  -28.3850   17.0240 O.2   203  PHE203     -0.2867
     72  CB       -25.3010  -26.2500   14.9770 C.3   203  PHE203      0.0534
     73  CG       -24.3350  -26.4020   16.1230 C.ar  203  PHE203     -0.0203
     74  CD1      -23.2240  -27.2000   16.0080 C.ar  203  PHE203     -0.0042
     75  CD2      -24.5890  -25.7530   17.3140 C.ar  203  PHE203     -0.0042
     76  CE1      -22.2980  -27.3350   17.0150 C.ar  203  PHE203     -0.0003
     77  CE2      -23.6830  -25.9260   18.3250 C.ar  203  PHE203     -0.0003
     78  CZ       -22.5560  -26.6930   18.2430 C.ar  203  PHE203     -0.0000
     79  N        -16.3510  -17.6240   11.2600 N.3   246  LYS246     -0.1245
     80  CA       -17.4000  -18.6740   11.2630 C.3   246  LYS246      0.1561
     81  C        -18.7380  -17.9380   11.0570 C.2   246  LYS246      0.2260
     82  O        -18.9460  -17.0070   11.7940 O.2   246  LYS246     -0.2867
     83  CB       -17.4340  -19.3010   12.6770 C.3   246  LYS246      0.0271
     84  CG       -18.6390  -20.3150   12.7510 C.3   246  LYS246      0.0035
     85  CD       -18.7550  -20.8300   14.1670 C.3   246  LYS246      0.0206
     86  CE       -19.9760  -21.6580   14.4450 C.3   246  LYS246      0.1093
     87  NZ       -19.9980  -22.2170   15.7860 N.3   246  LYS246     -0.1314
     88  N        -14.6600  -22.0260    9.9460 N.3   269  TYR269     -0.1241
     89  CA       -15.6050  -23.0530   10.2570 C.3   269  TYR269      0.1605
     90  C        -16.6200  -23.4020    9.2120 C.2   269  TYR269      0.2264
     91  O        -17.5090  -22.6140    8.9680 O.2   269  TYR269     -0.2867
     92  CB       -16.3030  -22.6940   11.5900 C.3   269  TYR269      0.0534
     93  CG       -16.7320  -23.9060   12.3780 C.ar  269  TYR269     -0.0201
     94  CD1      -17.6590  -24.7870   11.8640 C.ar  269  TYR269     -0.0009
     95  CD2      -16.3050  -24.0650   13.6860 C.ar  269  TYR269     -0.0009
     96  CE1      -18.0920  -25.8700   12.5800 C.ar  269  TYR269      0.0417
     97  CE2      -16.7710  -25.1420   14.4260 C.ar  269  TYR269      0.0417
     98  CZ       -17.6540  -26.0150   13.8790 C.ar  269  TYR269      0.1957
     99  OH       -18.0640  -27.0730   14.6420 O.3   269  TYR269     -0.2866
    100  N        -19.6590  -24.5790    8.8170 N.3   271  VAL271     -0.1231
    101  CA       -20.7850  -24.8380    9.6500 C.3   271  VAL271      0.1692
    102  C        -21.7160  -25.9150    9.2300 C.2   271  VAL271      0.2592
    103  O        -21.6800  -26.4430    8.1340 O.2   271  VAL271     -0.2718
    104  CB       -21.4940  -23.5890   10.1620 C.3   271  VAL271      0.0266
    105  CG1      -20.4170  -22.7060   10.8290 C.3   271  VAL271      0.0020
    106  CG2      -22.1360  -22.8530    8.9880 C.3   271  VAL271      0.0020
    107  N        -22.5710  -26.2970   10.1720 N.am  272  SER272     -0.1952
    108  CA       -23.5200  -27.3640    9.9830 C.3   272  SER272      0.1924
    109  C        -24.4440  -27.1390    8.8040 C.2   272  SER272      0.2314
    110  O        -24.8170  -28.0900    8.1510 O.2   272  SER272     -0.2863
    111  CB       -24.3250  -27.5750   11.2660 C.3   272  SER272      0.2116
    112  OG       -24.9780  -26.3740   11.6130 O.3   272  SER272     -0.2180
    113  N        -17.2790  -31.0960    9.2360 N.3   311  TYR311     -0.1241
    114  CA       -17.9060  -32.3380    9.6830 C.3   311  TYR311      0.1605
    115  C        -17.6020  -33.4720    8.7040 C.2   311  TYR311      0.2264
    116  O        -17.8680  -34.6090    9.0570 O.2   311  TYR311     -0.2867
    117  CB       -19.4290  -32.1180    9.7380 C.3   311  TYR311      0.0534
    118  CG       -19.7710  -31.0850   10.7790 C.ar  311  TYR311     -0.0201
    119  CD1      -19.7590  -31.3940   12.1300 C.ar  311  TYR311     -0.0009
    120  CD2      -20.0780  -29.8010   10.4100 C.ar  311  TYR311     -0.0009
    121  CE1      -20.0370  -30.4010   13.0580 C.ar  311  TYR311      0.0417
    122  CE2      -20.3470  -28.8210   11.2980 C.ar  311  TYR311      0.0417
    123  CZ       -20.3570  -29.1390   12.6580 C.ar  311  TYR311      0.1957
    124  OH       -20.6560  -28.1040   13.5140 O.3   311  TYR311     -0.2866
@<TRIPOS>BOND
     1   103   102    2
     2   110   109    2
     3   115   116    2
     4   115   114    1
     5   109   108    1
     6   100   101    1
     7    91    90    2
     8   106   104    1
     9    90    89    1
    10   102   101    1
    11   102   107   am
    12   113   114    1
    13   101   104    1
    14   114   117    1
    15   117   118    1
    16    88    89    1
    17   108   107    1
    18   108   111    1
    19   104   105    1
    20    89    92    1
    21   120   118   ar
    22   120   122   ar
    23   118   119   ar
    24    56    57    1
    25    81    80    1
    26    81    82    2
    27    79    80    1
    28    80    83    1
    29   111   112    1
    30   122   123   ar
    31    92    93    1
    32    94    93   ar
    33    94    96   ar
    34   119   121   ar
    35    57    58    1
    36    57    60    1
    37    93    95   ar
    38    58    59    2
    39    96    98   ar
    40   123   121   ar
    41   123   124    1
    42    62    64   ar
    43    62    61   ar
    44    83    84    1
    45    64    66   ar
    46    84    85    1
    47    67    66    1
    48    66    65   ar
    49    61    60    1
    50    61    63   ar
    51    68    69    1
    52    95    97   ar
    53    98    97   ar
    54    98    99    1
    55    65    63   ar
    56    85    86    1
    57    49    48    1
    58    49    50    2
    59    86    87    1
    60    48    47    1
    61    48    51    1
    62    69    72    1
    63    69    70    1
    64    72    73    1
    65    51    52    1
    66    52    53    1
    67    74    73   ar
    68    74    76   ar
    69    70    71    2
    70    73    75   ar
    71    42    44   ar
    72    42    40   ar
    73    44    45   ar
    74    53    54    1
    75    76    78   ar
    76    37    36    1
    77    37    38    2
    78    54    55    1
    79    75    77   ar
    80    36    39    1
    81    36    35    1
    82    10    11   ar
    83    10     8   ar
    84    39    40    1
    85    40    41   ar
    86    45    46    1
    87    45    43   ar
    88    11     9   ar
    89    78    77   ar
    90     8     6   ar
    91    41    43   ar
    92     9     7   ar
    93     6     7   ar
    94     6     5    1
    95    33    30    1
    96    33    34    1
    97     5     2    1
    98    32    31    2
    99    18    17   ar
   100    30    31    1
   101    30    29    1
   102     1     2    1
   103    17    16    1
   104    17    19   ar
   105     2     3    1
   106    16    13    1
   107    28    26   ar
   108     4     3    2
   109    13    12    1
   110    13    14    1
   111    26    27   ar
   112    26    25    1
   113    25    24    1
   114    14    15    2
   115    24    21    1
   116    20    21    1
   117    21    22    1
   118    22    23    2
