@<TRIPOS>MOLECULE
tmp/1b4hA00.pdb
 256 251 0 0 0
SMALL
GASTEIGER

@<TRIPOS>ATOM
      1  N          8.5200   23.7140   12.1220 N.3    32  GLU32      -0.1231
      2  CA         8.4240   22.6090   13.0750 C.3    32  GLU32       0.1699
      3  C          7.0720   21.9260   13.0480 C.2    32  GLU32       0.2593
      4  O          6.8860   20.9800   13.8410 O.2    32  GLU32      -0.2718
      5  CB         8.7550   23.1100   14.4920 C.3    32  GLU32       0.0402
      6  CG         7.6700   24.0590   15.0420 C.3    32  GLU32       0.1161
      7  CD         8.1900   24.9680   16.1220 C.2    32  GLU32       0.3649
      8  OE1        8.6700   26.1040   15.8070 O.co2  32  GLU32      -0.2457
      9  OE2        8.2020   24.5970   17.2990 O.co2  32  GLU32      -0.2457
     10  N          6.1000   22.4110   12.2610 N.am   33  GLY33      -0.1942
     11  CA         4.7330   21.8390   12.3940 C.3    33  GLY33       0.2014
     12  C          4.3050   21.0280   11.1840 C.2    33  GLY33       0.2638
     13  O          4.9810   20.8600   10.1560 O.2    33  GLY33      -0.2714
     14  N          3.1300   20.4150   11.3600 N.am   34  VAL34      -0.1977
     15  CA         2.4840   19.5940   10.3280 C.3    34  VAL34       0.1596
     16  C          2.1450   20.3260    9.0650 C.2    34  VAL34       0.2287
     17  O          2.5290   19.8930    7.9630 O.2    34  VAL34      -0.2864
     18  CB         1.2420   18.8730   10.9250 C.3    34  VAL34       0.0276
     19  CG1        0.4600   18.1300    9.8320 C.3    34  VAL34       0.0022
     20  CG2        1.7890   17.8300   11.9220 C.3    34  VAL34       0.0022
     21  N          5.4240   20.9390    7.2620 N.3    37  SER37      -0.1217
     22  CA         6.0080   19.6940    6.7170 C.3    37  SER37       0.1889
     23  C          5.1810   19.1500    5.5860 C.2    37  SER37       0.2288
     24  O          5.7530   18.5320    4.7010 O.2    37  SER37      -0.2866
     25  CB         6.0760   18.6260    7.8290 C.3    37  SER37       0.2089
     26  OG         6.9350   19.1090    8.8400 O.3    37  SER37      -0.2183
     27  N          7.3800   18.3410    2.1550 N.3    41  ARG41      -0.1245
     28  CA         7.5760   17.0390    1.4820 C.3    41  ARG41       0.1563
     29  C          7.4270   17.1180   -0.0140 C.2    41  ARG41       0.2260
     30  O          8.0350   16.3320   -0.7600 O.2    41  ARG41      -0.2867
     31  CB         6.6330   16.0000    2.1060 C.3    41  ARG41       0.0307
     32  CG         7.0610   15.5920    3.5140 C.3    41  ARG41       0.0489
     33  CD         6.2900   14.2920    3.8910 C.3    41  ARG41       0.2205
     34  NE         4.8640   14.5610    3.9780 N.pl3  41  ARG41      -0.0865
     35  CZ         4.2680   15.1720    4.9890 C.cat  41  ARG41       0.5346
     36  NH1        4.9430   15.5510    6.0900 N.pl3  41  ARG41       0.1354
     37  NH2        2.9650   15.3960    4.9500 N.pl3  41  ARG41       0.1354
     38  N         14.4520   22.8830   15.0610 N.3   109  TYR109     -0.1241
     39  CA        14.8350   21.4920   14.9420 C.3   109  TYR109      0.1605
     40  C         16.3380   21.2910   14.9560 C.2   109  TYR109      0.2264
     41  O         16.8350   20.2560   14.5270 O.2   109  TYR109     -0.2867
     42  CB        14.2020   20.8170   13.7270 C.3   109  TYR109      0.0534
     43  CG        12.9370   20.0390   13.9950 C.ar  109  TYR109     -0.0201
     44  CD1       11.6710   20.5580   13.7430 C.ar  109  TYR109     -0.0009
     45  CD2       13.0180   18.7570   14.5270 C.ar  109  TYR109     -0.0009
     46  CE1       10.5150   19.8030   13.9760 C.ar  109  TYR109      0.0417
     47  CE2       11.8600   18.0210   14.7970 C.ar  109  TYR109      0.0417
     48  CZ        10.6270   18.5170   14.4960 C.ar  109  TYR109      0.1957
     49  OH         9.5220   17.7350   14.7120 O.3   109  TYR109     -0.2866
     50  N         12.5020   13.4150    7.6610 N.3   161  HIS161     -0.1227
     51  CA        11.9990   14.6780    8.2260 C.3   161  HIS161      0.1737
     52  C         12.4930   15.9070    7.5010 C.2   161  HIS161      0.2438
     53  O         13.5850   15.8970    6.9680 O.2   161  HIS161     -0.2733
     54  CB        12.5460   14.6710    9.6690 C.3   161  HIS161      0.0758
     55  CG        11.8760   15.7240   10.4960 C.ar  161  HIS161      0.0818
     56  ND1       12.4470   16.9640   10.7620 N.ar  161  HIS161     -0.2268
     57  CD2       10.6340   15.7150   11.0340 C.ar  161  HIS161      0.1154
     58  CE1       11.5650   17.6640   11.4710 C.ar  161  HIS161      0.1986
     59  NE2       10.4640   16.9300   11.6890 N.ar  161  HIS161     -0.2212
     60  N         11.7060   16.9880    7.4150 N.am  162  PRO162     -0.2729
     61  CA        12.0930   18.1670    6.6420 C.3   162  PRO162      0.1401
     62  C         13.3860   18.8110    7.1170 C.2   162  PRO162      0.2269
     63  O         14.1300   19.3700    6.3020 O.2   162  PRO162     -0.2865
     64  CB        10.9190   19.1180    6.8850 C.3   162  PRO162      0.0296
     65  CG         9.7280   18.1770    6.9890 C.3   162  PRO162      0.0237
     66  CD        10.3320   17.1310    7.9770 C.3   162  PRO162      0.0939
     67  N         -7.9970   19.3500    5.8060 N.3   245  TYR245     -0.1227
     68  CA        -6.8770   19.1880    6.7340 C.3   245  TYR245      0.1736
     69  C         -7.3720   18.1240    7.7270 C.2   245  TYR245      0.2595
     70  O         -8.5840   17.7990    7.6860 O.2   245  TYR245     -0.2718
     71  CB        -6.5650   20.4900    7.4440 C.3   245  TYR245      0.0548
     72  CG        -5.4030   20.3940    8.4010 C.ar  245  TYR245     -0.0200
     73  CD1       -4.1340   20.1040    7.9160 C.ar  245  TYR245     -0.0009
     74  CD2       -5.5690   20.6320    9.7500 C.ar  245  TYR245     -0.0009
     75  CE1       -3.0620   20.0180    8.7790 C.ar  245  TYR245      0.0417
     76  CE2       -4.5090   20.5520   10.6430 C.ar  245  TYR245      0.0417
     77  CZ        -3.2640   20.2150   10.1340 C.ar  245  TYR245      0.1957
     78  OH        -2.2040   20.1390   11.0080 O.3   245  TYR245     -0.2866
     79  N         -6.5140   17.5520    8.5490 N.am  246  ASN246     -0.1960
     80  CA        -6.9510   16.4870    9.4470 C.3   246  ASN246      0.1819
     81  C         -7.1110   16.9550   10.8680 C.2   246  ASN246      0.2618
     82  O         -6.4600   16.5380   11.8080 O.2   246  ASN246     -0.2715
     83  CB        -6.0180   15.2840    9.3530 C.3   246  ASN246      0.1195
     84  CG        -4.5610   15.6290    9.5610 C.2   246  ASN246      0.2630
     85  OD1       -4.1530   16.7930    9.5960 O.2   246  ASN246     -0.2716
     86  ND2       -3.7790   14.5840    9.7230 N.am  246  ASN246     -0.0877
     87  N         -8.0120   17.9020   11.0410 N.am  247  ASN247     -0.2025
     88  CA        -8.5430   18.4510   12.2690 C.3   247  ASN247      0.1374
     89  C        -10.0590   18.5270   11.9500 C.3   247  ASN247      0.2041
     90  O        -10.3350   19.1340   10.8870 O.3   247  ASN247     -0.2185
     91  CB        -8.0910   19.8780   12.5300 C.3   247  ASN247      0.1128
     92  CG        -6.8640   20.0720   13.3740 C.2   247  ASN247      0.2626
     93  OD1       -6.3120   19.1200   13.9020 O.2   247  ASN247     -0.2716
     94  ND2       -6.4160   21.3520   13.4730 N.am  247  ASN247     -0.0877
     95  N         -2.8960    7.1820   14.1820 N.3   269  TYR269     -0.1241
     96  CA        -2.0340    8.3860   14.0150 C.3   269  TYR269      0.1605
     97  C         -1.1530    8.5150   15.2150 C.2   269  TYR269      0.2264
     98  O         -1.6620    8.4790   16.3510 O.2   269  TYR269     -0.2867
     99  CB        -2.9820    9.5800   13.8500 C.3   269  TYR269      0.0534
    100  CG        -2.4480   10.8560   13.2450 C.ar  269  TYR269     -0.0201
    101  CD1       -1.2780   10.9450   12.5160 C.ar  269  TYR269     -0.0009
    102  CD2       -3.2240   12.0200   13.3990 C.ar  269  TYR269     -0.0009
    103  CE1       -0.8480   12.1750   11.9870 C.ar  269  TYR269      0.0417
    104  CE2       -2.7960   13.2360   12.8790 C.ar  269  TYR269      0.0417
    105  CZ        -1.6320   13.3000   12.1630 C.ar  269  TYR269      0.1957
    106  OH        -1.2050   14.5120   11.6110 O.3   269  TYR269     -0.2866
    107  N         -4.0980   27.6910   19.3900 N.3   366  ASN366     -0.1240
    108  CA        -3.9960   28.3060   18.0680 C.3   366  ASN366      0.1653
    109  C         -5.4060   28.3700   17.5030 C.2   366  ASN366      0.2266
    110  O         -6.1890   27.4140   17.5930 O.2   366  ASN366     -0.2867
    111  CB        -3.0370   27.4840   17.1980 C.3   366  ASN366      0.1155
    112  CG        -3.4280   26.0090   17.0720 C.2   366  ASN366      0.2627
    113  OD1       -3.3980   25.3250   18.0950 O.2   366  ASN366     -0.2716
    114  ND2       -3.7950   25.5590   15.8650 N.am  366  ASN366     -0.0877
    115  N        -10.0570   23.4970   18.6260 N.3   371  HIS371     -0.1241
    116  CA        -9.3130   23.8050   19.8350 C.3   371  HIS371      0.1621
    117  C        -10.1030   24.7400   20.7550 C.2   371  HIS371      0.2264
    118  O         -9.9180   24.6370   21.9600 O.2   371  HIS371     -0.2867
    119  CB        -7.9400   24.4160   19.5810 C.3   371  HIS371      0.0745
    120  CG        -7.1000   23.4910   18.7220 C.ar  371  HIS371      0.0817
    121  ND1       -7.0930   22.1350   18.9970 N.ar  371  HIS371     -0.2268
    122  CD2       -6.3230   23.6930   17.6230 C.ar  371  HIS371      0.1154
    123  CE1       -6.2910   21.5190   18.1170 C.ar  371  HIS371      0.1986
    124  NE2       -5.8480   22.4400   17.2520 N.ar  371  HIS371     -0.2212
    125  N         -1.3600   30.2940   14.1700 N.3   397  TRP397     -0.1241
    126  CA        -0.3330   29.2560   14.2810 C.3   397  TRP397      0.1605
    127  C          1.1020   29.7150   14.4430 C.2   397  TRP397      0.2264
    128  O          1.7810   29.3230   15.3760 O.2   397  TRP397     -0.2867
    129  CB        -0.4050   28.3680   13.0320 C.3   397  TRP397      0.0550
    130  CG         0.4560   27.1460   12.9480 C.ar  397  TRP397      0.0003
    131  CD1        1.3680   26.8840   11.9640 C.ar  397  TRP397      0.0946
    132  CD2        0.4280   25.9920   13.7890 C.ar  397  TRP397      0.0152
    133  NE1        1.9490   25.6520   12.1710 N.ar  397  TRP397     -0.2442
    134  CE2        1.3770   25.0690   13.2790 C.ar  397  TRP397      0.0810
    135  CE3       -0.2870   25.6450   14.9390 C.ar  397  TRP397      0.0012
    136  CZ2        1.6210   23.8360   13.8630 C.ar  397  TRP397      0.0191
    137  CZ3       -0.0340   24.4080   15.5290 C.ar  397  TRP397      0.0001
    138  CH2        0.9240   23.5090   14.9890 C.ar  397  TRP397      0.0015
    139  N          1.5350   31.5570   17.7270 N.3   400  PHE400     -0.1227
    140  CA         1.3720   30.5720   18.7940 C.3   400  PHE400      0.1736
    141  C          2.6400   29.7730   19.0320 C.2   400  PHE400      0.2595
    142  O          2.9980   29.5310   20.1960 O.2   400  PHE400     -0.2718
    143  CB         0.2360   29.6300   18.3140 C.3   400  PHE400      0.0547
    144  CG        -0.0240   28.3910   19.1010 C.ar  400  PHE400     -0.0202
    145  CD1       -0.5640   28.4030   20.3560 C.ar  400  PHE400     -0.0042
    146  CD2        0.3070   27.1420   18.5200 C.ar  400  PHE400     -0.0042
    147  CE1       -0.8240   27.2270   21.0550 C.ar  400  PHE400     -0.0003
    148  CE2        0.0670   25.9690   19.2000 C.ar  400  PHE400     -0.0003
    149  CZ        -0.5020   26.0390   20.4490 C.ar  400  PHE400     -0.0000
    150  N          3.2860   29.2770   17.9600 N.am  401  LEU401     -0.1980
    151  CA         4.5120   28.4860   18.2000 C.3   401  LEU401      0.1596
    152  C          5.6350   29.3450   18.7840 C.2   401  LEU401      0.2287
    153  O          6.3970   28.9490   19.6840 O.2   401  LEU401     -0.2864
    154  CB         4.9870   27.8500   16.8860 C.3   401  LEU401      0.0297
    155  CG         3.9400   26.8950   16.2570 C.3   401  LEU401      0.0022
    156  CD1        4.4180   26.4080   14.9140 C.3   401  LEU401      0.0001
    157  CD2        3.6500   25.7300   17.2360 C.3   401  LEU401      0.0001
    158  N          5.1640   29.8660   22.5670 N.3   404  ARG404     -0.1245
    159  CA         5.5750   28.6980   23.3480 C.3   404  ARG404      0.1563
    160  C          7.0880   28.6220   23.4390 C.2   404  ARG404      0.2260
    161  O          7.5460   28.3220   24.5440 O.2   404  ARG404     -0.2867
    162  CB         4.9740   27.4000   22.7610 C.3   404  ARG404      0.0307
    163  CG         3.4510   27.4330   22.9020 C.3   404  ARG404      0.0489
    164  CD         2.7540   26.4100   22.0300 C.3   404  ARG404      0.2205
    165  NE         3.2280   25.0640   22.3670 N.pl3 404  ARG404     -0.0865
    166  CZ         3.1200   23.9810   21.6160 C.cat 404  ARG404      0.5346
    167  NH1        2.5250   24.0940   20.4370 N.pl3 404  ARG404      0.1354
    168  NH2        3.6160   22.7990   22.0320 N.pl3 404  ARG404      0.1354
    169  N         -2.5720   24.7100   24.6900 N.3   413  ARG413     -0.1231
    170  CA        -3.0500   23.5330   23.9680 C.3   413  ARG413      0.1694
    171  C         -1.8510   23.0740   23.1430 C.2   413  ARG413      0.2592
    172  O         -0.9700   23.8760   22.7600 O.2   413  ARG413     -0.2718
    173  CB        -4.2870   23.9620   23.2240 C.3   413  ARG413      0.0321
    174  CG        -4.8840   23.0260   22.2070 C.3   413  ARG413      0.0489
    175  CD        -4.2840   23.4810   20.8440 C.3   413  ARG413      0.2205
    176  NE        -3.9050   22.2000   20.3030 N.pl3 413  ARG413     -0.0865
    177  CZ        -3.0890   21.8360   19.3360 C.cat 413  ARG413      0.5346
    178  NH1       -2.4260   22.6960   18.5810 N.pl3 413  ARG413      0.1354
    179  NH2       -3.0010   20.4950   19.2010 N.pl3 413  ARG413      0.1354
    180  N         -1.7170   21.7580   22.9200 N.am  414  ALA414     -0.1966
    181  CA        -0.5430   21.2990   22.2030 C.3   414  ALA414      0.1728
    182  C         -0.7700   19.9100   21.6120 C.2   414  ALA414      0.2617
    183  O         -1.6750   19.1910   22.0330 O.2   414  ALA414     -0.2715
    184  CB         0.6580   21.2110   23.1390 C.3   414  ALA414      0.0334
    185  N          0.0480   19.6460   20.6150 N.am  415  GLY415     -0.1940
    186  CA        -0.0400   18.3460   19.9500 C.3   415  GLY415      0.2014
    187  C          1.3420   18.0180   19.3950 C.2   415  GLY415      0.2639
    188  O          1.9770   18.8840   18.7710 O.2   415  GLY415     -0.2714
    189  N          1.8040   16.8000   19.6420 N.am  416  TRP416     -0.1959
    190  CA         3.0890   16.3790   19.0480 C.3   416  TRP416      0.1771
    191  C          2.8030   15.1320   18.2100 C.2   416  TRP416      0.2620
    192  O          2.0900   14.2250   18.7000 O.2   416  TRP416     -0.2715
    193  CB         4.1690   16.1310   20.1200 C.3   416  TRP416      0.0590
    194  CG         5.5170   15.7970   19.4820 C.ar  416  TRP416      0.0006
    195  CD1        6.0950   14.5560   19.3610 C.ar  416  TRP416      0.0946
    196  CD2        6.4430   16.7360   18.9330 C.ar  416  TRP416      0.0152
    197  NE1        7.3490   14.6760   18.7360 N.ar  416  TRP416     -0.2442
    198  CE2        7.5610   16.0090   18.4880 C.ar  416  TRP416      0.0810
    199  CE3        6.4090   18.1340   18.8370 C.ar  416  TRP416      0.0012
    200  CZ2        8.6490   16.6350   17.8790 C.ar  416  TRP416      0.0191
    201  CZ3        7.5080   18.7670   18.2340 C.ar  416  TRP416      0.0001
    202  CH2        8.6000   18.0020   17.7900 C.ar  416  TRP416      0.0015
    203  N          3.2710   15.0870   16.9740 N.am  417  CYS417     -0.1954
    204  CA         3.1780   13.8950   16.1370 C.3   417  CYS417      0.1843
    205  C          4.5900   13.3970   15.8540 C.2   417  CYS417      0.2625
    206  O          5.5430   14.1800   15.6250 O.2   417  CYS417     -0.2714
    207  CB         2.5440   14.1660   14.7730 C.3   417  CYS417      0.0997
    208  SG         0.8320   14.8140   14.8830 S.3   417  CYS417     -0.0797
    209  N          4.7280   12.0670   15.8480 N.am  418  ALA418     -0.1963
    210  CA         6.0440   11.4460   15.6430 C.3   418  ALA418      0.1728
    211  C          6.6730   11.9060   14.3400 C.2   418  ALA418      0.2616
    212  O          5.9810   12.1340   13.3450 O.2   418  ALA418     -0.2715
    213  CB         5.9050    9.9050   15.4980 C.3   418  ALA418      0.0334
    214  N          8.0070   12.0180   14.3430 N.am  419  ASP419     -0.1971
    215  CA         8.7500   12.3230   13.1150 C.3   419  ASP419      0.1709
    216  C          9.3600   11.0090   12.5750 C.2   419  ASP419      0.2293
    217  O          9.6390   10.8960   11.3720 O.2   419  ASP419     -0.2864
    218  CB         9.8860   13.2930   13.4530 C.3   419  ASP419      0.1436
    219  CG         9.3630   14.6640   13.9250 C.2   419  ASP419      0.3671
    220  OD1        8.3650   15.1530   13.3320 O.co2 419  ASP419     -0.2456
    221  OD2        9.9600   15.2040   14.8740 O.co2 419  ASP419     -0.2456
    222  N          9.1520   22.9220   24.4560 N.3   438  THR438     -0.1218
    223  CA         8.3240   24.1090   24.7420 C.3   438  THR438      0.1862
    224  C          7.6260   23.9550   26.0660 C.2   438  THR438      0.2287
    225  O          6.8750   24.8390   26.5690 O.2   438  THR438     -0.2866
    226  CB         7.3030   24.3420   23.5930 C.3   438  THR438      0.1770
    227  OG1        6.7070   23.1060   23.1720 O.3   438  THR438     -0.2211
    228  CG2        8.0990   24.8760   22.4040 C.3   438  THR438      0.0375
    229  N         -4.4630   10.9600   19.1710 N.3   485  TYR485     -0.1241
    230  CA        -5.2910   11.2960   18.0510 C.3   485  TYR485      0.1605
    231  C         -5.5420   10.0740   17.1330 C.2   485  TYR485      0.2264
    232  O         -4.7370    9.1910   17.0170 O.2   485  TYR485     -0.2867
    233  CB        -4.6530   12.2770   17.0850 C.3   485  TYR485      0.0534
    234  CG        -4.3140   13.7030   17.4050 C.ar  485  TYR485     -0.0201
    235  CD1       -3.4900   14.0830   18.4380 C.ar  485  TYR485     -0.0009
    236  CD2       -4.8430   14.7120   16.5820 C.ar  485  TYR485     -0.0009
    237  CE1       -3.1980   15.4350   18.6510 C.ar  485  TYR485      0.0417
    238  CE2       -4.5800   16.0470   16.7980 C.ar  485  TYR485      0.0417
    239  CZ        -3.7340   16.3910   17.8300 C.ar  485  TYR485      0.1957
    240  OH        -3.3930   17.7170   18.0660 O.3   485  TYR485     -0.2866
    241  N          2.2800    8.0470   10.4880 N.3   504  LEU504     -0.1245
    242  CA         2.8940    9.3620   10.5490 C.3   504  LEU504      0.1561
    243  C          2.2450   10.3500    9.5720 C.2   504  LEU504      0.2260
    244  O          2.5380   11.5500    9.6560 O.2   504  LEU504     -0.2867
    245  CB         4.4040    9.3850   10.2980 C.3   504  LEU504      0.0270
    246  CG         5.2720    8.5240   11.2310 C.3   504  LEU504      0.0019
    247  CD1        6.7230    8.9700   11.2100 C.3   504  LEU504      0.0001
    248  CD2        4.7470    8.4740   12.6360 C.3   504  LEU504      0.0001
    249  N          2.7420   10.9100    6.3550 N.3   506  ASN506     -0.1240
    250  CA         3.7870   11.5570    5.5600 C.3   506  ASN506      0.1653
    251  C          3.3510   11.4840    4.1060 C.2   506  ASN506      0.2266
    252  O          3.9500   10.8560    3.2730 O.2   506  ASN506     -0.2867
    253  CB         5.1410   10.9080    5.8010 C.3   506  ASN506      0.1155
    254  CG         5.8410   11.4570    7.0390 C.2   506  ASN506      0.2627
    255  OD1        5.7770   12.6390    7.3620 O.2   506  ASN506     -0.2716
    256  ND2        6.5180   10.5940    7.7780 N.am  506  ASN506     -0.0877
@<TRIPOS>BOND
     1    30    29    2
     2    29    28    1
     3    28    31    1
     4    28    27    1
     5    31    32    1
     6   252   251    2
     7    32    33    1
     8    33    34    1
     9    34    35    2
    10   251   250    1
    11    24    23    2
    12    37    35    1
    13    35    36    1
    14   250   253    1
    15   250   249    1
    16    23    22    1
    17   253   254    1
    18    67    68    1
    19    63    62    2
    20    61    64    1
    21    61    62    1
    22    61    60    1
    23    22    21    1
    24    22    25    1
    25    68    71    1
    26    68    69    1
    27    64    65    1
    28    53    52    2
    29    65    66    1
    30   254   255    2
    31   254   256   am
    32    60    52   am
    33    60    66    1
    34    71    72    1
    35    52    51    1
    36    50    51    1
    37    70    69    2
    38    69    79   am
    39    25    26    1
    40    73    72   ar
    41    73    75   ar
    42    17    16    2
    43    51    54    1
    44    72    74   ar
    45    79    80    1
    46    75    77   ar
    47    16    15    1
    48    83    80    1
    49    83    84    1
    50    80    81    1
    51    84    85    2
    52    84    86   am
    53   243   244    2
    54   243   242    1
    55    54    55    1
    56    74    76   ar
    57    19    18    1
    58    77    76   ar
    59    77    78    1
    60    13    12    2
    61   245   242    1
    62   245   246    1
    63    15    18    1
    64    15    14    1
    65   241   242    1
    66    55    56   ar
    67    55    57   ar
    68    56    58   ar
    69    81    87   am
    70    81    82    2
    71    90    89    1
    72    18    20    1
    73    57    59   ar
    74    87    88    1
    75    12    14   am
    76    12    11    1
    77   247   246    1
    78   246   248    1
    79   217   216    2
    80    58    59   ar
    81   106   105    1
    82    89    88    1
    83   131   133   ar
    84   131   130   ar
    85   103   105   ar
    86   103   101   ar
    87     1     2    1
    88   105   104   ar
    89   133   134   ar
    90    10    11    1
    91    10     3   am
    92    88    91    1
    93   101   100   ar
    94    91    92    1
    95   216   215    1
    96   104   102   ar
    97   130   129    1
    98   130   132   ar
    99   129   126    1
   100     3     2    1
   101     3     4    2
   102     2     5    1
   103   215   218    1
   104   215   214    1
   105   100   102   ar
   106   100    99    1
   107   134   132   ar
   108   134   136   ar
   109   220   219   ar
   110   212   211    2
   111    92    94   am
   112    92    93    2
   113   218   219    1
   114    42    43    1
   115    42    39    1
   116    44    46   ar
   117    44    43   ar
   118   132   135   ar
   119    99    96    1
   120   136   138   ar
   121   219   221   ar
   122    46    48   ar
   123    43    45   ar
   124    96    95    1
   125    96    97    1
   126   125   126    1
   127   126   127    1
   128   211   214   am
   129   211   210    1
   130   127   128    2
   131     5     6    1
   132    48    49    1
   133    48    47   ar
   134    41    40    2
   135    45    47   ar
   136   207   208    1
   137   207   204    1
   138   156   155    1
   139   135   137   ar
   140    39    40    1
   141    39    38    1
   142   138   137   ar
   143     6     7    1
   144    97    98    2
   145   213   210    1
   146   206   205    2
   147   210   209    1
   148     8     7   ar
   149   209   205   am
   150   205   204    1
   151   114   112   am
   152     7     9   ar
   153   204   203    1
   154   155   154    1
   155   155   157    1
   156   236   238   ar
   157   236   234   ar
   158   238   239   ar
   159   154   151    1
   160   203   191   am
   161   232   231    2
   162   112   111    1
   163   112   113    2
   164   233   234    1
   165   233   230    1
   166   231   230    1
   167   111   108    1
   168   124   122   ar
   169   124   123   ar
   170   234   235   ar
   171   109   110    2
   172   109   108    1
   173   122   120   ar
   174   139   140    1
   175   202   200   ar
   176   202   201   ar
   177   239   240    1
   178   239   237   ar
   179   200   198   ar
   180   150   151    1
   181   150   141   am
   182   230   229    1
   183   108   107    1
   184   123   121   ar
   185   151   152    1
   186   191   192    2
   187   191   190    1
   188   201   199   ar
   189   143   140    1
   190   143   144    1
   191   235   237   ar
   192   198   197   ar
   193   198   196   ar
   194   146   144   ar
   195   146   148   ar
   196   178   177    1
   197   115   116    1
   198   120   121   ar
   199   120   119    1
   200   197   195   ar
   201   188   187    2
   202   152   153    2
   203   140   141    1
   204   199   196   ar
   205   196   194   ar
   206   141   142    2
   207   190   189    1
   208   190   193    1
   209   144   145   ar
   210   148   149   ar
   211   179   177    1
   212   177   176    2
   213   195   194   ar
   214   187   189   am
   215   187   186    1
   216   194   193    1
   217   119   116    1
   218   116   117    1
   219   186   185    1
   220   176   175    1
   221   145   147   ar
   222   167   166    1
   223   149   147   ar
   224   185   182   am
   225   117   118    2
   226   175   174    1
   227   182   183    2
   228   182   181    1
   229   166   168    1
   230   166   165    2
   231   164   165    1
   232   164   163    1
   233   181   180    1
   234   181   184    1
   235   174   173    1
   236   228   226    1
   237   158   159    1
   238   172   171    2
   239   162   163    1
   240   162   159    1
   241   180   171   am
   242   171   170    1
   243   227   226    1
   244   173   170    1
   245   159   160    1
   246   160   161    2
   247   226   223    1
   248   170   169    1
   249   222   223    1
   250   223   224    1
   251   224   225    2
