@<TRIPOS>MOLECULE
tmp/1b4kA00.pdb
 123 117 0 0 0
SMALL
GASTEIGER

@<TRIPOS>ATOM
      1  N        126.2540   27.6720   12.6590 N.3    77  PHE77      -0.1241
      2  CA       124.8220   27.7480   12.9940 C.3    77  PHE77       0.1605
      3  C        124.4680   26.4860   13.8040 C.2    77  PHE77       0.2264
      4  O        124.4530   25.3920   13.2410 O.2    77  PHE77      -0.2867
      5  CB       123.9250   27.8700   11.7360 C.3    77  PHE77       0.0534
      6  CG       124.1150   29.2100   11.0380 C.ar   77  PHE77      -0.0203
      7  CD1      123.4580   30.3360   11.5080 C.ar   77  PHE77      -0.0042
      8  CD2      125.0030   29.3010    9.9840 C.ar   77  PHE77      -0.0042
      9  CE1      123.7180   31.5660   10.8950 C.ar   77  PHE77      -0.0003
     10  CE2      125.2750   30.5150    9.3620 C.ar   77  PHE77      -0.0003
     11  CZ       124.5680   31.6260    9.8140 C.ar   77  PHE77      -0.0000
     12  N        126.9960   33.2160   15.1410 N.3   118  ASP118     -0.1239
     13  CA       125.7220   33.8770   14.8440 C.3   118  ASP118      0.1674
     14  C        125.1730   34.4520   16.1350 C.2   118  ASP118      0.2266
     15  O        124.9690   33.7400   17.1220 O.2   118  ASP118     -0.2867
     16  CB       124.7710   32.8260   14.2420 C.3   118  ASP118      0.1410
     17  CG       123.4330   33.4360   13.8450 C.2   118  ASP118      0.3668
     18  OD1      123.4770   34.4670   13.1420 O.co2 118  ASP118     -0.2456
     19  OD2      122.3390   32.8870   14.1210 O.co2 118  ASP118     -0.2456
     20  N        116.8370   33.1650   17.3390 N.3   122  ASP122     -0.1239
     21  CA       115.9530   32.2350   16.6550 C.3   122  ASP122      0.1674
     22  C        116.2340   30.7630   16.8340 C.2   122  ASP122      0.2266
     23  O        115.2590   29.9730   16.8660 O.2   122  ASP122     -0.2867
     24  CB       115.6980   32.5650   15.1710 C.3   122  ASP122      0.1410
     25  CG       116.9750   32.6470   14.3740 C.2   122  ASP122      0.3668
     26  OD1      117.8060   33.5020   14.7570 O.co2 122  ASP122     -0.2456
     27  OD2      117.2420   31.9100   13.3920 O.co2 122  ASP122     -0.2456
     28  N        122.6130   38.6950   13.2820 N.3   166  SER166     -0.1217
     29  CA       121.7320   38.4480   12.1430 C.3   166  SER166      0.1889
     30  C        120.2660   38.6970   12.5050 C.2   166  SER166      0.2288
     31  O        119.3740   38.3010   11.7350 O.2   166  SER166     -0.2866
     32  CB       121.8560   36.9710   11.7180 C.3   166  SER166      0.2089
     33  OG       121.4300   36.0650   12.7540 O.3   166  SER166     -0.2183
     34  N        124.5780   42.0470    9.9650 N.3   193  TYR193     -0.1241
     35  CA       123.6110   41.7580    8.8990 C.3   193  TYR193      0.1605
     36  C        122.7880   43.0650    8.8750 C.2   193  TYR193      0.2264
     37  O        121.9470   43.3390    9.7280 O.2   193  TYR193     -0.2867
     38  CB       122.7370   40.5540    9.2200 C.3   193  TYR193      0.0534
     39  CG       123.3730   39.1830    9.2000 C.ar  193  TYR193     -0.0201
     40  CD1      124.3850   38.7630   10.0500 C.ar  193  TYR193     -0.0009
     41  CD2      122.8280   38.2410    8.3210 C.ar  193  TYR193     -0.0009
     42  CE1      124.8760   37.4690   10.0260 C.ar  193  TYR193      0.0417
     43  CE2      123.3030   36.9250    8.2740 C.ar  193  TYR193      0.0417
     44  CZ       124.3010   36.5600    9.1420 C.ar  193  TYR193      0.1957
     45  OH       124.7520   35.2550    9.0800 O.3   193  TYR193     -0.2866
     46  N        118.9480   43.2000    5.8380 N.3   196  LYS196     -0.1245
     47  CA       118.4690   41.8190    5.7840 C.3   196  LYS196      0.1561
     48  C        116.9520   41.8570    5.5740 C.2   196  LYS196      0.2260
     49  O        116.2530   42.4300    6.4120 O.2   196  LYS196     -0.2867
     50  CB       118.8250   41.1120    7.0970 C.3   196  LYS196      0.0271
     51  CG       118.2670   39.6880    7.1270 C.3   196  LYS196      0.0035
     52  CD       118.8880   38.8800    8.2730 C.3   196  LYS196      0.0206
     53  CE       118.1090   37.5640    8.4410 C.3   196  LYS196      0.1093
     54  NZ       118.9680   36.6260    9.3020 N.3   196  LYS196     -0.1314
     55  N        114.5490   31.9600    2.6610 N.3   202  TYR202     -0.1241
     56  CA       115.1400   31.3540    3.8450 C.3   202  TYR202      0.1605
     57  C        114.5440   29.9880    4.2130 C.2   202  TYR202      0.2264
     58  O        114.9700   29.3950    5.2090 O.2   202  TYR202     -0.2867
     59  CB       114.8790   32.2320    5.0710 C.3   202  TYR202      0.0534
     60  CG       115.4070   33.6460    4.9630 C.ar  202  TYR202     -0.0201
     61  CD1      116.6120   33.9170    4.3180 C.ar  202  TYR202     -0.0009
     62  CD2      114.6960   34.6940    5.5210 C.ar  202  TYR202     -0.0009
     63  CE1      117.0710   35.2190    4.2360 C.ar  202  TYR202      0.0417
     64  CE2      115.1710   35.9980    5.4960 C.ar  202  TYR202      0.0417
     65  CZ       116.3560   36.2480    4.8340 C.ar  202  TYR202      0.1957
     66  OH       116.8580   37.5330    4.7550 O.3   202  TYR202     -0.2866
     67  N        116.9180   26.9220    5.1690 N.3   205  PHE205     -0.1241
     68  CA       117.7130   27.1500    6.3650 C.3   205  PHE205      0.1605
     69  C        116.9100   26.8260    7.6210 C.2   205  PHE205      0.2264
     70  O        117.4190   26.2260    8.5630 O.2   205  PHE205     -0.2867
     71  CB       118.1450   28.6300    6.4370 C.3   205  PHE205      0.0534
     72  CG       118.8340   29.0630    7.6990 C.ar  205  PHE205     -0.0203
     73  CD1      118.1100   29.4540    8.8140 C.ar  205  PHE205     -0.0042
     74  CD2      120.2230   29.0970    7.7450 C.ar  205  PHE205     -0.0042
     75  CE1      118.7630   29.8610    9.9690 C.ar  205  PHE205     -0.0003
     76  CE2      120.8660   29.5020    8.9000 C.ar  205  PHE205     -0.0003
     77  CZ       120.1570   29.8610   10.0250 C.ar  205  PHE205     -0.0000
     78  N        121.4530   40.7040    2.6820 N.3   251  LYS251     -0.1245
     79  CA       120.8970   39.3540    2.6530 C.3   251  LYS251      0.1561
     80  C        119.4010   39.3400    2.3840 C.2   251  LYS251      0.2260
     81  O        118.7280   40.1630    3.0080 O.2   251  LYS251     -0.2867
     82  CB       121.0560   38.8060    4.1070 C.3   251  LYS251      0.0271
     83  CG       120.4280   37.4160    4.2640 C.3   251  LYS251      0.0035
     84  CD       120.9080   36.8570    5.6110 C.3   251  LYS251      0.0206
     85  CE       119.8340   35.8780    6.0930 C.3   251  LYS251      0.1093
     86  NZ       120.6410   34.8810    6.7550 N.3   251  LYS251     -0.1314
     87  N        125.0200   37.3870    1.5330 N.3   274  TYR274     -0.1241
     88  CA       124.7520   35.9630    1.8530 C.3   274  TYR274      0.1605
     89  C        123.9530   35.3260    0.7260 C.2   274  TYR274      0.2264
     90  O        122.8850   35.8420    0.3920 O.2   274  TYR274     -0.2867
     91  CB       123.9710   35.9330    3.1800 C.3   274  TYR274      0.0534
     92  CG       124.0670   34.6570    3.9980 C.ar  274  TYR274     -0.0201
     93  CD1      123.9540   33.4030    3.3990 C.ar  274  TYR274     -0.0009
     94  CD2      124.2870   34.7310    5.3730 C.ar  274  TYR274     -0.0009
     95  CE1      124.0450   32.2290    4.1720 C.ar  274  TYR274      0.0417
     96  CE2      124.3610   33.5720    6.1490 C.ar  274  TYR274      0.0417
     97  CZ       124.2560   32.3440    5.5220 C.ar  274  TYR274      0.1957
     98  OH       124.3330   31.1950    6.3080 O.3   274  TYR274     -0.2866
     99  N        121.8030   32.7850    0.2240 N.3   276  VAL276     -0.1231
    100  CA       121.0620   32.0460    1.2190 C.3   276  VAL276      0.1692
    101  C        120.6620   30.6480    0.7700 C.2   276  VAL276      0.2592
    102  O        120.7600   30.2680   -0.3960 O.2   276  VAL276     -0.2718
    103  CB       119.8440   32.8250    1.7660 C.3   276  VAL276      0.0266
    104  CG1      120.3200   34.2110    2.2620 C.3   276  VAL276      0.0020
    105  CG2      118.7720   32.9630    0.6830 C.3   276  VAL276      0.0020
    106  N        120.1650   29.9070    1.7430 N.am  277  SER277     -0.1952
    107  CA       119.7460   28.5160    1.5740 C.3   277  SER277      0.1924
    108  C        118.8510   28.3160    0.3630 C.2   277  SER277      0.2314
    109  O        119.0640   27.3660   -0.3870 O.2   277  SER277     -0.2863
    110  CB       119.0480   28.0290    2.8560 C.3   277  SER277      0.2116
    111  OG       117.9240   28.8490    3.1680 O.3   277  SER277     -0.2180
    112  N        126.8470   28.3370    0.7230 N.3   315  TYR315     -0.1241
    113  CA       126.9210   26.8830    0.9360 C.3   315  TYR315      0.1605
    114  C        127.6700   26.1710   -0.1630 C.2   315  TYR315      0.2264
    115  O        127.9820   24.9630    0.0110 O.2   315  TYR315     -0.2867
    116  CB       125.4950   26.2820    1.1040 C.3   315  TYR315      0.0534
    117  CG       124.7310   26.9940    2.1970 C.ar  315  TYR315     -0.0201
    118  CD1      124.8960   26.6560    3.5490 C.ar  315  TYR315     -0.0009
    119  CD2      123.8790   28.0600    1.8830 C.ar  315  TYR315     -0.0009
    120  CE1      124.2190   27.3300    4.5450 C.ar  315  TYR315      0.0417
    121  CE2      123.2150   28.7330    2.9030 C.ar  315  TYR315      0.0417
    122  CZ       123.3900   28.3790    4.2240 C.ar  315  TYR315      0.1957
    123  OH       122.7190   29.0950    5.2040 O.3   315  TYR315     -0.2866
@<TRIPOS>BOND
     1   102   101    2
     2   109   108    2
     3   114   115    2
     4   114   113    1
     5    99   100    1
     6   108   107    1
     7    90    89    2
     8   105   103    1
     9   112   113    1
    10    89    88    1
    11   101   100    1
    12   101   106   am
    13   113   116    1
    14   116   117    1
    15   100   103    1
    16    87    88    1
    17   107   106    1
    18   107   110    1
    19   103   104    1
    20    88    91    1
    21   119   117   ar
    22   119   121   ar
    23   117   118   ar
    24    80    79    1
    25    80    81    2
    26    79    78    1
    27    79    82    1
    28    55    56    1
    29   110   111    1
    30   121   122   ar
    31    91    92    1
    32    93    92   ar
    33    93    95   ar
    34   118   120   ar
    35    56    57    1
    36    56    59    1
    37    92    94   ar
    38    82    83    1
    39    95    97   ar
    40    57    58    2
    41   122   120   ar
    42   122   123    1
    43    63    61   ar
    44    63    65   ar
    45    83    84    1
    46    61    60   ar
    47    66    65    1
    48    65    64   ar
    49    60    59    1
    50    60    62   ar
    51    67    68    1
    52    94    96   ar
    53    64    62   ar
    54    97    96   ar
    55    97    98    1
    56    48    47    1
    57    48    49    2
    58    84    85    1
    59    47    46    1
    60    47    50    1
    61    85    86    1
    62    68    71    1
    63    68    69    1
    64    71    72    1
    65    50    51    1
    66    51    52    1
    67    69    70    2
    68    72    74   ar
    69    72    73   ar
    70    74    76   ar
    71    52    53    1
    72    43    41   ar
    73    43    44   ar
    74    41    39   ar
    75    53    54    1
    76    73    75   ar
    77    36    35    1
    78    36    37    2
    79    35    38    1
    80    35    34    1
    81    76    77   ar
    82    45    44    1
    83    44    42   ar
    84    39    38    1
    85    39    40   ar
    86    10    11   ar
    87    10     8   ar
    88    11     9   ar
    89    75    77   ar
    90     8     6   ar
    91    42    40   ar
    92     9     7   ar
    93     6     7   ar
    94     6     5    1
    95    32    29    1
    96    32    33    1
    97    31    30    2
    98     5     2    1
    99    29    30    1
   100    29    28    1
   101     1     2    1
   102     2     3    1
   103    18    17   ar
   104     4     3    2
   105    27    25   ar
   106    17    19   ar
   107    17    16    1
   108    16    13    1
   109    25    26   ar
   110    25    24    1
   111    13    12    1
   112    13    14    1
   113    24    21    1
   114    14    15    2
   115    21    22    1
   116    21    20    1
   117    22    23    2
