@<TRIPOS>MOLECULE
tmp/1b4nB01.pdb
 201 192 0 0 0
SMALL
GASTEIGER

@<TRIPOS>ATOM
      1  N         27.7730  101.3460   90.8140 N.3    90  ASP90      -0.1225
      2  CA        29.1030  101.2400   90.2530 C.3    90  ASP90       0.1805
      3  C         30.1030  100.7790   91.2860 C.2    90  ASP90       0.2598
      4  O         29.7950  100.7100   92.4780 O.2    90  ASP90      -0.2718
      5  CB        29.5230  102.5530   89.5600 C.3    90  ASP90       0.1424
      6  CG        30.2860  103.5200   90.4630 C.2    90  ASP90       0.3668
      7  OD1       30.4600  103.2860   91.6690 O.co2  90  ASP90      -0.2456
      8  OD2       30.7190  104.5550   89.9310 O.co2  90  ASP90      -0.2456
      9  N         31.2920  100.4230   90.8080 N.am   91  GLY91      -0.1942
     10  CA        32.3350   99.9370   91.6790 C.3    91  GLY91       0.2014
     11  C         33.6530  100.3160   91.0630 C.2    91  GLY91       0.2638
     12  O         33.6840  100.8610   89.9710 O.2    91  GLY91      -0.2714
     13  N         34.7410  100.0020   91.7480 N.am   92  ASN92      -0.1972
     14  CA        36.0620  100.3700   91.2890 C.3    92  ASN92       0.1688
     15  C         36.9930   99.2740   91.7180 C.2    92  ASN92       0.2292
     16  O         36.8210   98.6900   92.7850 O.2    92  ASN92      -0.2864
     17  CB        36.4590  101.6780   91.9660 C.3    92  ASN92       0.1181
     18  CG        37.7330  102.2780   91.4160 C.2    92  ASN92       0.2629
     19  OD1       38.8100  101.6770   91.4730 O.2    92  ASN92      -0.2716
     20  ND2       37.6180  103.4930   90.8950 N.am   92  ASN92      -0.0877
     21  N         30.0490   90.5440   92.2590 N.3   173  VAL173     -0.1245
     22  CA        31.0040   91.5160   91.7560 C.3   173  VAL173      0.1561
     23  C         31.9130   90.9600   90.6530 C.2   173  VAL173      0.2260
     24  O         31.7920   89.7990   90.2470 O.2   173  VAL173     -0.2867
     25  CB        31.8780   92.0610   92.9340 C.3   173  VAL173      0.0252
     26  CG1       30.9860   92.7320   93.9740 C.3   173  VAL173      0.0019
     27  CG2       32.6480   90.9470   93.5950 C.3   173  VAL173      0.0019
     28  N         35.8570   90.2270   89.5980 N.3   175  ILE175     -0.1245
     29  CA        37.1380   90.0250   90.2640 C.3   175  ILE175      0.1561
     30  C         38.3140   90.0950   89.3000 C.2   175  ILE175      0.2260
     31  O         38.1640   89.8890   88.1000 O.2   175  ILE175     -0.2867
     32  CB        37.1600   88.6420   90.9800 C.3   175  ILE175      0.0252
     33  CG1       36.0400   88.5860   92.0270 C.3   175  ILE175      0.0019
     34  CG2       38.5340   88.3690   91.5990 C.3   175  ILE175      0.0019
     35  CD1       36.3080   89.4250   93.2670 C.3   175  ILE175      0.0001
     36  N         41.6590   88.7950   94.3250 N.3   179  GLY179     -0.1225
     37  CA        41.6950   89.7820   95.3820 C.3   179  GLY179      0.1811
     38  C         41.0740   91.1150   95.0250 C.2   179  GLY179      0.2280
     39  O         40.2890   91.6410   95.7930 O.2   179  GLY179     -0.2866
     40  N         38.4870   93.6230   93.5740 N.3   181  ALA181     -0.1231
     41  CA        37.0600   93.5190   93.2580 C.3   181  ALA181      0.1694
     42  C         36.3720   94.8580   92.9830 C.2   181  ALA181      0.2592
     43  O         36.8150   95.9050   93.4690 O.2   181  ALA181     -0.2718
     44  CB        36.3320   92.7990   94.4000 C.3   181  ALA181      0.0304
     45  N         35.2700   94.8110   92.2310 N.am  182  ALA182     -0.1966
     46  CA        34.4920   95.9980   91.9000 C.3   182  ALA182      0.1728
     47  C         33.0280   95.6980   91.6300 C.2   182  ALA182      0.2617
     48  O         32.7030   94.6380   91.1020 O.2   182  ALA182     -0.2715
     49  CB        35.0850   96.6770   90.6920 C.3   182  ALA182      0.0334
     50  N         32.1430   96.6310   92.0000 N.am  183  GLY183     -0.1940
     51  CA        30.7170   96.4700   91.7370 C.3   183  GLY183      0.2014
     52  C         29.7670   95.9130   92.7870 C.2   183  GLY183      0.2638
     53  O         28.9020   95.0870   92.4760 O.2   183  GLY183     -0.2714
     54  N         29.8880   96.3680   94.0260 N.am  184  ARG184     -0.1977
     55  CA        29.0070   95.8830   95.0900 C.3   184  ARG184      0.1597
     56  C         27.5340   95.7830   94.6850 C.2   184  ARG184      0.2287
     57  O         26.8930   94.7750   94.9560 O.2   184  ARG184     -0.2864
     58  CB        29.1050   96.7800   96.3310 C.3   184  ARG184      0.0334
     59  CG        30.4440   96.7700   97.0340 C.3   184  ARG184      0.0492
     60  CD        30.3220   97.3920   98.4070 C.3   184  ARG184      0.2205
     61  NE        29.2160   96.8060   99.1550 N.pl3 184  ARG184     -0.0865
     62  CZ        28.4070   97.4800   99.9710 C.cat 184  ARG184      0.5346
     63  NH1       28.5710   98.7810  100.1550 N.pl3 184  ARG184      0.1354
     64  NH2       27.4370   96.8450  100.6180 N.pl3 184  ARG184      0.1354
     65  N         44.7840   98.6490  105.1480 N.3   240  THR240     -0.1218
     66  CA        43.5340   99.1260  105.7300 C.3   240  THR240      0.1862
     67  C         43.1300   98.3230  106.9710 C.2   240  THR240      0.2287
     68  O         42.1550   98.6660  107.6470 O.2   240  THR240     -0.2866
     69  CB        42.3810   99.0890  104.6990 C.3   240  THR240      0.1770
     70  OG1       42.0290   97.7330  104.4180 O.3   240  THR240     -0.2211
     71  CG2       42.7930   99.7790  103.4140 C.3   240  THR240      0.0375
     72  N         43.4110   87.3160  100.4400 N.3   304  GLU304     -0.1245
     73  CA        43.7990   88.7280  100.3910 C.3   304  GLU304      0.1567
     74  C         42.8540   89.5070  101.2900 C.2   304  GLU304      0.2260
     75  O         41.6750   89.6330  100.9840 O.2   304  GLU304     -0.2867
     76  CB        43.6990   89.2520   98.9610 C.3   304  GLU304      0.0388
     77  CG        44.8830   90.0920   98.5280 C.3   304  GLU304      0.1160
     78  CD        44.4970   91.1890   97.5550 C.2   304  GLU304      0.3649
     79  OE1       43.4450   91.8450   97.7840 O.co2 304  GLU304     -0.2457
     80  OE2       45.2440   91.3900   96.5660 O.co2 304  GLU304     -0.2457
     81  N         41.3110   92.8210  103.4200 N.3   306  ASP306     -0.1225
     82  CA        41.0710   94.2630  103.4120 C.3   306  ASP306      0.1805
     83  C         40.1710   94.4810  104.6110 C.2   306  ASP306      0.2598
     84  O         39.3570   93.6110  104.9360 O.2   306  ASP306     -0.2718
     85  CB        40.3600   94.6980  102.1380 C.3   306  ASP306      0.1424
     86  CG        41.3150   94.8790  100.9900 C.2   306  ASP306      0.3668
     87  OD1       42.1260   95.8320  101.0490 O.co2 306  ASP306     -0.2456
     88  OD2       41.2560   94.0590  100.0440 O.co2 306  ASP306     -0.2456
     89  N         40.3160   95.6260  105.2680 N.am  307  TYR307     -0.1962
     90  CA        39.5330   95.8970  106.4530 C.3   307  TYR307      0.1771
     91  C         38.0750   95.5280  106.3150 C.2   307  TYR307      0.2619
     92  O         37.5370   94.7560  107.1130 O.2   307  TYR307     -0.2715
     93  CB        39.6250   97.3630  106.8550 C.3   307  TYR307      0.0574
     94  CG        38.5700   97.7400  107.8720 C.ar  307  TYR307     -0.0198
     95  CD1       38.6380   97.2630  109.1810 C.ar  307  TYR307     -0.0009
     96  CD2       37.4620   98.5030  107.5070 C.ar  307  TYR307     -0.0009
     97  CE1       37.6220   97.5260  110.1010 C.ar  307  TYR307      0.0417
     98  CE2       36.4390   98.7730  108.4190 C.ar  307  TYR307      0.0417
     99  CZ        36.5240   98.2740  109.7140 C.ar  307  TYR307      0.1957
    100  OH        35.4910   98.4880  110.5980 O.3   307  TYR307     -0.2866
    101  N         37.4250   96.0720  105.3020 N.am  308  GLU308     -0.1963
    102  CA        36.0130   95.8090  105.1290 C.3   308  GLU308      0.1733
    103  C         35.6300   94.3310  105.1000 C.2   308  GLU308      0.2616
    104  O         34.5910   93.9480  105.6350 O.2   308  GLU308     -0.2715
    105  CB        35.5280   96.5020  103.8760 C.3   308  GLU308      0.0429
    106  CG        34.2480   97.2600  104.0910 C.3   308  GLU308      0.1163
    107  CD        34.4430   98.5330  104.8750 C.2   308  GLU308      0.3649
    108  OE1       35.5520   99.1060  104.8430 O.co2 308  GLU308     -0.2457
    109  OE2       33.4750   98.9620  105.5240 O.co2 308  GLU308     -0.2457
    110  N         36.4630   93.4980  104.4870 N.am  309  ASN309     -0.1972
    111  CA        36.1710   92.0680  104.4040 C.3   309  ASN309      0.1688
    112  C         36.1560   91.4350  105.7760 C.2   309  ASN309      0.2292
    113  O         35.2600   90.6550  106.0970 O.2   309  ASN309     -0.2864
    114  CB        37.2200   91.3300  103.5590 C.3   309  ASN309      0.1181
    115  CG        37.4660   91.9840  102.2170 C.2   309  ASN309      0.2629
    116  OD1       36.5960   92.6630  101.6720 O.2   309  ASN309     -0.2716
    117  ND2       38.6600   91.7810  101.6770 N.am  309  ASN309     -0.0877
    118  N         34.4710   84.4300   99.0880 N.3   332  ALA332     -0.1231
    119  CA        33.8360   85.5820   98.4750 C.3   332  ALA332      0.1694
    120  C         34.5490   85.8820   97.1640 C.2   332  ALA332      0.2592
    121  O         33.9270   85.9760   96.0970 O.2   332  ALA332     -0.2718
    122  CB        33.9230   86.7740   99.3990 C.3   332  ALA332      0.0304
    123  N         35.8670   86.0070   97.2490 N.am  333  ASP333     -0.1974
    124  CA        36.6890   86.2990   96.0850 C.3   333  ASP333      0.1709
    125  C         36.5600   85.2840   94.9530 C.2   333  ASP333      0.2293
    126  O         36.2800   85.6510   93.8190 O.2   333  ASP333     -0.2864
    127  CB        38.1510   86.4250   96.5070 C.3   333  ASP333      0.1436
    128  CG        38.4710   87.7980   97.0830 C.2   333  ASP333      0.3671
    129  OD1       37.5990   88.6910   97.0040 O.co2 333  ASP333     -0.2456
    130  OD2       39.5900   87.9870   97.6140 O.co2 333  ASP333     -0.2456
    131  N         31.7210   87.4450   94.8910 N.3   337  MET337     -0.1230
    132  CA        30.6860   88.1940   95.5930 C.3   337  MET337      0.1702
    133  C         31.2300   89.1610   96.6370 C.2   337  MET337      0.2592
    134  O         32.1940   88.8680   97.3530 O.2   337  MET337     -0.2718
    135  CB        29.6420   87.2540   96.2130 C.3   337  MET337      0.0401
    136  CG        30.1830   86.2030   97.1430 C.3   337  MET337      0.0596
    137  SD        28.9560   84.9170   97.5090 S.3   337  MET337     -0.1393
    138  CE        30.0510   83.7460   98.2770 C.3   337  MET337      0.0692
    139  N         30.6030   90.3300   96.6950 N.am  338  ASP338     -0.1960
    140  CA        31.0020   91.3890   97.6070 C.3   338  ASP338      0.1840
    141  C         31.0550   90.9080   99.0460 C.2   338  ASP338      0.2623
    142  O         30.0490   90.4640   99.5960 O.2   338  ASP338     -0.2715
    143  CB        30.0240   92.5470   97.4760 C.3   338  ASP338      0.1450
    144  CG        30.2320   93.6030   98.5200 C.2   338  ASP338      0.3671
    145  OD1       31.4050   93.8670   98.8640 O.co2 338  ASP338     -0.2456
    146  OD2       29.2210   94.1720   98.9910 O.co2 338  ASP338     -0.2456
    147  N         32.2340   90.9990   99.6560 N.am  339  THR339     -0.1937
    148  CA        32.4220   90.5730  101.0380 C.3   339  THR339      0.2028
    149  C         31.4450   91.2850  101.9850 C.2   339  THR339      0.2642
    150  O         30.8530   90.6690  102.8740 O.2   339  THR339     -0.2714
    151  CB        33.8350   90.8760  101.5000 C.3   339  THR339      0.1808
    152  OG1       34.1210   92.2600  101.2510 O.3   339  THR339     -0.2208
    153  CG2       34.8240   89.9960  100.7770 C.3   339  THR339      0.0379
    154  N         31.2830   92.5840  101.7760 N.am  340  ILE340     -0.1977
    155  CA        30.3930   93.4010  102.5880 C.3   340  ILE340      0.1596
    156  C         28.9310   92.9510  102.5920 C.2   340  ILE340      0.2287
    157  O         28.3670   92.6250  103.6460 O.2   340  ILE340     -0.2864
    158  CB        30.4400   94.8830  102.1230 C.3   340  ILE340      0.0276
    159  CG1       31.8030   95.4990  102.4680 C.3   340  ILE340      0.0022
    160  CG2       29.2870   95.6600  102.7360 C.3   340  ILE340      0.0022
    161  CD1       32.0400   96.8540  101.8370 C.3   340  ILE340      0.0001
    162  N         27.5800  103.0490  101.3410 N.3   436  HIS436     -0.1226
    163  CA        28.9960  102.7870  101.1000 C.3   436  HIS436      0.1752
    164  C         29.7510  103.8950  101.8070 C.2   436  HIS436      0.2596
    165  O         29.1660  104.9110  102.1380 O.2   436  HIS436     -0.2718
    166  CB        29.3130  102.8390   99.6040 C.3   436  HIS436      0.0759
    167  CG        30.4740  101.9810   99.1900 C.ar  436  HIS436      0.0818
    168  ND1       31.6710  101.9620   99.8760 N.ar  436  HIS436     -0.2268
    169  CD2       30.6220  101.1200   98.1510 C.ar  436  HIS436      0.1154
    170  CE1       32.5060  101.1280   99.2790 C.ar  436  HIS436      0.1986
    171  NE2       31.8940  100.6040   98.2310 N.ar  436  HIS436     -0.2212
    172  N         31.0450  103.6970  102.0270 N.am  437  HIS437     -0.1961
    173  CA        31.9050  104.6850  102.6780 C.3   437  HIS437      0.1787
    174  C         32.8780  105.2370  101.6300 C.2   437  HIS437      0.2620
    175  O         33.7060  106.1120  101.9110 O.2   437  HIS437     -0.2715
    176  CB        32.7170  104.0140  103.7820 C.3   437  HIS437      0.0785
    177  CG        33.5720  102.8990  103.2780 C.ar  437  HIS437      0.0821
    178  ND1       33.0480  101.6880  102.8760 N.ar  437  HIS437     -0.2267
    179  CD2       34.9050  102.8310  103.0420 C.ar  437  HIS437      0.1154
    180  CE1       34.0210  100.9230  102.4120 C.ar  437  HIS437      0.1986
    181  NE2       35.1570  101.5930  102.5020 N.ar  437  HIS437     -0.2212
    182  N         32.7780  104.6900  100.4240 N.am  438  LYS438     -0.1977
    183  CA        33.6200  105.0740   99.2980 C.3   438  LYS438      0.1596
    184  C         33.6730  106.5840   99.0940 C.2   438  LYS438      0.2287
    185  O         34.7410  107.1940   99.1250 O.2   438  LYS438     -0.2864
    186  CB        33.0800  104.4080   98.0270 C.3   438  LYS438      0.0298
    187  CG        33.5950  104.9890   96.7040 C.3   438  LYS438      0.0038
    188  CD        32.6480  104.6440   95.5440 C.3   438  LYS438      0.0206
    189  CE        32.4500  103.1340   95.3800 C.3   438  LYS438      0.1093
    190  NZ        33.5210  102.4830   94.5680 N.3   438  LYS438     -0.1314
    191  N         42.5120  106.7130   95.8390 N.3   484  ARG484     -0.1245
    192  CA        42.4130  107.7990   96.8050 C.3   484  ARG484      0.1563
    193  C         43.2800  107.5910   98.0420 C.2   484  ARG484      0.2260
    194  O         43.6470  108.5490   98.7130 O.2   484  ARG484     -0.2867
    195  CB        40.9550  107.9550   97.2380 C.3   484  ARG484      0.0307
    196  CG        40.3800  106.7110   97.8960 C.3   484  ARG484      0.0489
    197  CD        39.1770  107.0430   98.7450 C.3   484  ARG484      0.2205
    198  NE        38.6620  105.8770   99.4540 N.pl3 484  ARG484     -0.0865
    199  CZ        37.6530  105.1300   99.0220 C.cat 484  ARG484      0.5346
    200  NH1       37.0460  105.4230   97.8830 N.pl3 484  ARG484      0.1354
    201  NH2       37.2410  104.0940   99.7380 N.pl3 484  ARG484      0.1354
@<TRIPOS>BOND
     1    31    30    2
     2    30    29    1
     3     5     2    1
     4     5     6    1
     5    28    29    1
     6     8     6   ar
     7    12    11    2
     8    24    23    2
     9     2     1    1
    10     2     3    1
    11    29    32    1
    12     6     7   ar
    13    23    22    1
    14    49    46    1
    15     9     3   am
    16     9    10    1
    17    20    18   am
    18    32    34    1
    19    32    33    1
    20    11    10    1
    21    11    13   am
    22    48    47    2
    23     3     4    2
    24    14    15    1
    25    14    13    1
    26    14    17    1
    27    18    19    2
    28    18    17    1
    29    47    46    1
    30    47    50   am
    31    15    16    2
    32    51    50    1
    33    51    52    1
    34    22    21    1
    35    22    25    1
    36    46    45    1
    37    33    35    1
    38    45    42   am
    39    53    52    2
    40    52    54   am
    41    25    27    1
    42    25    26    1
    43    42    41    1
    44    42    43    2
    45    41    40    1
    46    41    44    1
    47   126   125    2
    48    54    55    1
    49    36    37    1
    50   190   189    1
    51    56    57    2
    52    56    55    1
    53   131   132    1
    54   125   124    1
    55    38    37    1
    56    38    39    2
    57    55    58    1
    58   189   188    1
    59   188   187    1
    60   132   135    1
    61   132   133    1
    62   191   192    1
    63   124   127    1
    64   124   123    1
    65   121   120    2
    66   135   136    1
    67    58    59    1
    68   127   128    1
    69    80    78   ar
    70   133   139   am
    71   133   134    2
    72   139   140    1
    73   187   186    1
    74   192   195    1
    75   192   193    1
    76   129   128   ar
    77    59    60    1
    78   128   130   ar
    79   136   137    1
    80   120   123   am
    81   120   119    1
    82   195   196    1
    83   143   140    1
    84   143   144    1
    85   137   138    1
    86    78    79   ar
    87    78    77    1
    88   140   141    1
    89   200   199    1
    90   196   197    1
    91   186   183    1
    92   193   194    2
    93   169   171   ar
    94   169   167   ar
    95   171   170   ar
    96    60    61    1
    97   119   118    1
    98   119   122    1
    99   144   145   ar
   100   144   146   ar
   101    77    76    1
   102   197   198    1
   103    76    73    1
   104   199   198    2
   105   199   201    1
   106   141   142    2
   107   141   147   am
   108   184   185    2
   109   184   183    1
   110    61    62    2
   111   167   166    1
   112   167   168   ar
   113   170   168   ar
   114   183   182    1
   115   166   163    1
   116   147   148    1
   117    62    63    1
   118    62    64    1
   119    88    86   ar
   120    73    72    1
   121    73    74    1
   122   182   174   am
   123   153   151    1
   124    75    74    2
   125    86    87   ar
   126    86    85    1
   127   148   151    1
   128   148   149    1
   129   163   162    1
   130   163   164    1
   131   152   151    1
   132   174   175    2
   133   174   173    1
   134   116   115    2
   135   117   115   am
   136   154   149   am
   137   154   155    1
   138   164   172   am
   139   164   165    2
   140   161   159    1
   141   149   150    2
   142   172   173    1
   143   158   159    1
   144   158   155    1
   145   158   160    1
   146    85    82    1
   147   115   114    1
   148   180   181   ar
   149   180   178   ar
   150   181   179   ar
   151   155   156    1
   152   156   157    2
   153   173   176    1
   154   178   177   ar
   155   179   177   ar
   156   177   176    1
   157    82    81    1
   158    82    83    1
   159    71    69    1
   160   114   111    1
   161   105   106    1
   162   105   102    1
   163   106   107    1
   164   111   110    1
   165   111   112    1
   166    70    69    1
   167   110   103   am
   168    83    84    2
   169    83    89   am
   170    69    66    1
   171   108   107   ar
   172   107   109   ar
   173   103   102    1
   174   103   104    2
   175   102   101    1
   176    65    66    1
   177    89    90    1
   178   101    91   am
   179    66    67    1
   180   112   113    2
   181    91    90    1
   182    91    92    2
   183    90    93    1
   184    93    94    1
   185    67    68    2
   186    96    94   ar
   187    96    98   ar
   188    94    95   ar
   189    98    99   ar
   190    95    97   ar
   191    99    97   ar
   192    99   100    1
