@<TRIPOS>MOLECULE
tmp/1b4nC01.pdb
 182 173 0 0 0
SMALL
GASTEIGER

@<TRIPOS>ATOM
      1  N         37.9520   63.3910   57.3750 N.3    75  LYS75      -0.1245
      2  CA        39.3630   63.6500   57.0900 C.3    75  LYS75       0.1561
      3  C         39.6230   65.0830   56.6330 C.2    75  LYS75       0.2260
      4  O         38.6890   65.8510   56.3990 O.2    75  LYS75      -0.2867
      5  CB        39.8750   62.6690   56.0370 C.3    75  LYS75       0.0271
      6  CG        39.8520   61.2140   56.4680 C.3    75  LYS75       0.0035
      7  CD        40.4380   61.0430   57.8650 C.3    75  LYS75       0.0206
      8  CE        40.8730   59.6040   58.1440 C.3    75  LYS75       0.1093
      9  NZ        42.3100   59.4980   58.5380 N.3    75  LYS75      -0.1314
     10  N         47.2660   63.8740   55.3930 N.3    92  ASN92      -0.1225
     11  CA        45.8560   63.7730   55.7230 C.3    92  ASN92       0.1785
     12  C         45.7510   63.4270   57.2090 C.2    92  ASN92       0.2597
     13  O         46.6710   62.8370   57.7840 O.2    92  ASN92      -0.2718
     14  CB        45.2240   62.6770   54.8510 C.3    92  ASN92       0.1169
     15  CG        43.7110   62.7150   54.8550 C.2    92  ASN92       0.2627
     16  OD1       43.0770   62.3440   55.8400 O.2    92  ASN92      -0.2716
     17  ND2       43.1190   63.1540   53.7450 N.am   92  ASN92      -0.0877
     18  N         44.6480   63.8080   57.8370 N.am   93  LEU93      -0.1966
     19  CA        44.4300   63.5000   59.2450 C.3    93  LEU93       0.1728
     20  C         42.9420   63.5860   59.5290 C.2    93  LEU93       0.2616
     21  O         42.2430   64.3980   58.9220 O.2    93  LEU93      -0.2715
     22  CB        45.2270   64.4700   60.1430 C.3    93  LEU93       0.0311
     23  CG        44.6040   65.5690   61.0310 C.3    93  LEU93       0.0022
     24  CD1       45.5470   65.8990   62.1830 C.3    93  LEU93       0.0001
     25  CD2       44.3610   66.8220   60.2220 C.3    93  LEU93       0.0001
     26  N         42.4520   62.7190   60.4140 N.am   94  GLY94      -0.1955
     27  CA        41.0430   62.7470   60.7910 C.3    94  GLY94       0.1869
     28  C         40.9370   63.7160   61.9550 C.2    94  GLY94       0.2309
     29  O         41.8300   63.7590   62.8000 O.2    94  GLY94      -0.2863
     30  N         46.6440   61.9760   68.7560 N.3   179  GLY179     -0.1210
     31  CA        46.7670   60.7670   67.9640 C.3   179  GLY179      0.1956
     32  C         46.7570   60.9030   66.4570 C.2   179  GLY179      0.2612
     33  O         47.5600   60.2480   65.7880 O.2   179  GLY179     -0.2717
     34  N         45.8460   61.7130   65.9180 N.am  180  ARG180     -0.1965
     35  CA        45.7640   61.9150   64.4720 C.3   180  ARG180      0.1729
     36  C         46.8380   62.9000   63.9890 C.2   180  ARG180      0.2616
     37  O         46.9620   63.9990   64.5150 O.2   180  ARG180     -0.2715
     38  CB        44.3720   62.4230   64.0720 C.3   180  ARG180      0.0348
     39  CG        43.2160   62.0020   64.9730 C.3   180  ARG180      0.0492
     40  CD        43.1790   60.5170   65.3030 C.3   180  ARG180      0.2205
     41  NE        43.5570   59.6410   64.1960 N.pl3 180  ARG180     -0.0865
     42  CZ        43.2460   58.3470   64.1040 C.cat 180  ARG180      0.5346
     43  NH1       42.5460   57.7400   65.0440 N.pl3 180  ARG180      0.1354
     44  NH2       43.6510   57.6490   63.0650 N.pl3 180  ARG180      0.1354
     45  N         47.6190   62.5000   62.9940 N.am  181  ALA181     -0.1977
     46  CA        48.6830   63.3550   62.4610 C.3   181  ALA181      0.1597
     47  C         48.5410   63.6380   60.9560 C.2   181  ALA181      0.2287
     48  O         47.8610   62.8990   60.2350 O.2   181  ALA181     -0.2864
     49  CB        50.0220   62.7190   62.7310 C.3   181  ALA181      0.0319
     50  N         45.4180   48.7100   61.9350 N.3   240  THR240     -0.1218
     51  CA        46.5560   48.6480   61.0420 C.3   240  THR240      0.1862
     52  C         47.6700   47.8060   61.6400 C.2   240  THR240      0.2287
     53  O         48.6170   47.4270   60.9490 O.2   240  THR240     -0.2866
     54  CB        47.0910   50.0650   60.7000 C.3   240  THR240      0.1770
     55  OG1       47.4150   50.7820   61.8980 O.3   240  THR240     -0.2211
     56  CG2       46.0470   50.8430   59.9170 C.3   240  THR240      0.0375
     57  N         38.1520   58.5570   64.0150 N.3   284  CYS284     -0.1235
     58  CA        37.9170   59.8770   63.4610 C.3   284  CYS284      0.1677
     59  C         36.4200   60.1330   63.3710 C.2   284  CYS284      0.2270
     60  O         35.6060   59.2330   63.6110 O.2   284  CYS284     -0.2867
     61  CB        38.5520   60.0030   62.0790 C.3   284  CYS284      0.0956
     62  SG        40.1750   59.2420   61.9680 S.3   284  CYS284     -0.0801
     63  N         39.9530   52.8360   64.5810 N.3   291  CYS291     -0.1235
     64  CA        41.1790   52.0850   64.5970 C.3   291  CYS291      0.1677
     65  C         42.2840   52.7920   65.3750 C.2   291  CYS291      0.2270
     66  O         43.4610   52.4560   65.2470 O.2   291  CYS291     -0.2867
     67  CB        41.5880   51.7810   63.1530 C.3   291  CYS291      0.0956
     68  SG        42.2140   53.1840   62.1700 S.3   291  CYS291     -0.0801
     69  N         49.7140   52.7090   65.5870 N.3   306  ASP306     -0.1239
     70  CA        49.4240   52.4840   64.1640 C.3   306  ASP306      0.1674
     71  C         50.5830   51.6770   63.6170 C.2   306  ASP306      0.2266
     72  O         51.6710   51.7350   64.1760 O.2   306  ASP306     -0.2867
     73  CB        49.3040   53.8070   63.4150 C.3   306  ASP306      0.1410
     74  CG        47.9570   54.4510   63.6180 C.2   306  ASP306      0.3668
     75  OD1       46.9770   53.9980   62.9770 O.co2 306  ASP306     -0.2456
     76  OD2       47.8810   55.3990   64.4390 O.co2 306  ASP306     -0.2456
     77  N         52.6070   51.8750   60.8890 N.3   308  GLU308     -0.1245
     78  CA        53.7720   52.6130   60.4520 C.3   308  GLU308      0.1567
     79  C         54.5700   53.1580   61.6430 C.2   308  GLU308      0.2260
     80  O         55.8120   53.2260   61.6000 O.2   308  GLU308     -0.2867
     81  CB        53.3250   53.7250   59.5000 C.3   308  GLU308      0.0388
     82  CG        54.0390   53.7190   58.1430 C.3   308  GLU308      0.1160
     83  CD        53.6620   52.5520   57.2120 C.2   308  GLU308      0.3649
     84  OE1       52.4700   52.1800   57.0970 O.co2 308  GLU308     -0.2457
     85  OE2       54.5840   52.0090   56.5680 O.co2 308  GLU308     -0.2457
     86  N         56.2230   57.3400   50.0980 N.3   436  HIS436     -0.1226
     87  CA        55.0560   57.1190   50.9360 C.3   436  HIS436      0.1752
     88  C         54.2470   56.0080   50.2870 C.2   436  HIS436      0.2596
     89  O         54.2930   55.8300   49.0750 O.2   436  HIS436     -0.2718
     90  CB        54.2240   58.4030   51.0290 C.3   436  HIS436      0.0759
     91  CG        53.3580   58.4910   52.2550 C.ar  436  HIS436      0.0818
     92  ND1       52.5550   57.4520   52.6820 N.ar  436  HIS436     -0.2268
     93  CD2       53.1460   59.5090   53.1260 C.ar  436  HIS436      0.1154
     94  CE1       51.8870   57.8280   53.7600 C.ar  436  HIS436      0.1986
     95  NE2       52.2260   59.0710   54.0500 N.ar  436  HIS436     -0.2212
     96  N         53.5200   55.2540   51.0970 N.am  437  HIS437     -0.1961
     97  CA        52.6860   54.1530   50.6150 C.3   437  HIS437      0.1787
     98  C         51.2580   54.6870   50.5140 C.2   437  HIS437      0.2620
     99  O         50.3300   53.9790   50.1110 O.2   437  HIS437     -0.2715
    100  CB        52.7180   53.0100   51.6250 C.3   437  HIS437      0.0785
    101  CG        52.1980   53.4060   52.9720 C.ar  437  HIS437      0.0821
    102  ND1       52.9900   54.0220   53.9200 N.ar  437  HIS437     -0.2267
    103  CD2       50.9430   53.3860   53.4860 C.ar  437  HIS437      0.1154
    104  CE1       52.2440   54.3680   54.9560 C.ar  437  HIS437      0.1986
    105  NE2       50.9980   53.9940   54.7180 N.ar  437  HIS437     -0.2212
    106  N         51.0920   55.9440   50.9050 N.am  438  LYS438     -0.1977
    107  CA        49.7940   56.5900   50.8900 C.3   438  LYS438      0.1596
    108  C         49.0010   56.3650   49.6160 C.2   438  LYS438      0.2287
    109  O         47.9380   55.7330   49.6380 O.2   438  LYS438     -0.2864
    110  CB        49.9590   58.0950   51.0990 C.3   438  LYS438      0.0298
    111  CG        48.6930   58.9060   50.8050 C.3   438  LYS438      0.0038
    112  CD        48.9890   60.3960   50.7930 C.3   438  LYS438      0.0206
    113  CE        49.3400   60.9120   52.1700 C.3   438  LYS438      0.1093
    114  NZ        48.1330   61.4430   52.8590 N.3   438  LYS438     -0.1314
    115  N         43.5600   56.2540   45.7680 N.3   473  ARG473     -0.1245
    116  CA        44.1330   56.6470   47.0460 C.3   473  ARG473      0.1563
    117  C         44.8300   57.9930   47.0570 C.2   473  ARG473      0.2260
    118  O         44.7360   58.7240   48.0410 O.2   473  ARG473     -0.2867
    119  CB        45.1000   55.5690   47.5290 C.3   473  ARG473      0.0307
    120  CG        44.5660   54.1540   47.3870 C.3   473  ARG473      0.0489
    121  CD        45.7170   53.1850   47.2590 C.3   473  ARG473      0.2205
    122  NE        46.6840   53.4030   48.3240 N.pl3 473  ARG473     -0.0865
    123  CZ        46.6420   52.7780   49.4930 C.cat 473  ARG473      0.5346
    124  NH1       45.6790   51.9020   49.7300 N.pl3 473  ARG473      0.1354
    125  NH2       47.5560   53.0300   50.4200 N.pl3 473  ARG473      0.1354
    126  N         40.1770   59.7110   47.1530 N.3   477  PHE477     -0.1227
    127  CA        40.1220   59.8440   48.6010 C.3   477  PHE477      0.1736
    128  C         40.8050   61.0560   49.1870 C.2   477  PHE477      0.2595
    129  O         40.4320   61.4980   50.2640 O.2   477  PHE477     -0.2718
    130  CB        40.6340   58.5660   49.2580 C.3   477  PHE477      0.0547
    131  CG        39.7000   57.4120   49.0950 C.ar  477  PHE477     -0.0202
    132  CD1       38.4800   57.4050   49.7500 C.ar  477  PHE477     -0.0042
    133  CD2       40.0110   56.3610   48.2350 C.ar  477  PHE477     -0.0042
    134  CE1       37.5730   56.3740   49.5570 C.ar  477  PHE477     -0.0003
    135  CE2       39.1190   55.3280   48.0300 C.ar  477  PHE477     -0.0003
    136  CZ        37.8900   55.3350   48.6960 C.ar  477  PHE477     -0.0000
    137  N         41.7930   61.6060   48.4950 N.am  478  GLU478     -0.1979
    138  CA        42.4620   62.8000   49.0050 C.3   478  GLU478      0.1602
    139  C         41.7300   64.0760   48.5840 C.2   478  GLU478      0.2287
    140  O         42.1060   65.1670   48.9950 O.2   478  GLU478     -0.2864
    141  CB        43.9040   62.8680   48.5030 C.3   478  GLU478      0.0415
    142  CG        44.8680   61.9570   49.2310 C.3   478  GLU478      0.1163
    143  CD        44.8930   62.1970   50.7300 C.2   478  GLU478      0.3649
    144  OE1       44.0970   61.5390   51.4320 O.co2 478  GLU478     -0.2457
    145  OE2       45.7100   63.0310   51.2010 O.co2 478  GLU478     -0.2457
    146  N         37.1490   64.7190   51.1460 N.3   481  THR481     -0.1203
    147  CA        38.2680   63.7930   51.3210 C.3   481  THR481      0.1994
    148  C         37.8180   62.8380   52.4330 C.2   481  THR481      0.2618
    149  O         37.5490   63.2670   53.5600 O.2   481  THR481     -0.2717
    150  CB        39.5700   64.5080   51.7750 C.3   481  THR481      0.1784
    151  OG1       40.4610   63.5520   52.3630 O.3   481  THR481     -0.2211
    152  CG2       39.2840   65.5770   52.8020 C.3   481  THR481      0.0376
    153  N         37.7160   61.5490   52.1140 N.am  482  ALA482     -0.1965
    154  CA        37.2710   60.5560   53.0820 C.3   482  ALA482      0.1728
    155  C         38.3560   59.5260   53.3610 C.2   482  ALA482      0.2616
    156  O         39.4610   59.6490   52.8490 O.2   482  ALA482     -0.2715
    157  CB        36.0190   59.8910   52.5750 C.3   482  ALA482      0.0334
    158  N         38.0560   58.5250   54.1850 N.am  483  CYS483     -0.1954
    159  CA        39.0410   57.4860   54.5370 C.3   483  CYS483      0.1843
    160  C         39.0110   56.3290   53.5550 C.2   483  CYS483      0.2625
    161  O         37.9390   55.8500   53.1810 O.2   483  CYS483     -0.2714
    162  CB        38.7920   56.9410   55.9620 C.3   483  CYS483      0.0997
    163  SG        40.1000   55.8460   56.6360 S.3   483  CYS483     -0.0797
    164  N         40.1960   55.8650   53.1730 N.am  484  ARG484     -0.1963
    165  CA        40.3230   54.7680   52.2250 C.3   484  ARG484      0.1729
    166  C         40.2580   53.3660   52.8460 C.2   484  ARG484      0.2616
    167  O         39.9410   52.3880   52.1600 O.2   484  ARG484     -0.2715
    168  CB        41.6290   54.9180   51.4550 C.3   484  ARG484      0.0348
    169  CG        42.8100   55.0040   52.3450 C.3   484  ARG484      0.0492
    170  CD        44.0480   54.9890   51.5270 C.3   484  ARG484      0.2205
    171  NE        45.2020   54.5720   52.3150 N.pl3 484  ARG484     -0.0865
    172  CZ        46.1950   55.3780   52.6650 C.cat 484  ARG484      0.5346
    173  NH1       46.1720   56.6450   52.2970 N.pl3 484  ARG484      0.1354
    174  NH2       47.2220   54.9120   53.3630 N.pl3 484  ARG484      0.1354
    175  N         40.5600   53.2700   54.1350 N.am  485  LEU485     -0.1977
    176  CA        40.5340   51.9930   54.8360 C.3   485  LEU485      0.1596
    177  C         39.2160   51.2290   54.7530 C.2   485  LEU485      0.2287
    178  O         39.2230   50.0120   54.6020 O.2   485  LEU485     -0.2864
    179  CB        40.9240   52.2010   56.2880 C.3   485  LEU485      0.0297
    180  CG        42.3140   52.8170   56.4420 C.3   485  LEU485      0.0022
    181  CD1       42.7850   52.6720   57.8900 C.3   485  LEU485      0.0001
    182  CD2       43.2810   52.1450   55.4830 C.3   485  LEU485      0.0001
@<TRIPOS>BOND
     1   115   116    1
     2   116   117    1
     3   116   119    1
     4   117   118    2
     5   126   127    1
     6   121   120    1
     7   121   122    1
     8   120   119    1
     9   135   133   ar
    10   135   136   ar
    11   133   131   ar
    12   122   123    2
    13   137   138    1
    14   137   128   am
    15   141   138    1
    16   141   142    1
    17   139   140    2
    18   139   138    1
    19   127   128    1
    20   127   130    1
    21   136   134   ar
    22    89    88    2
    23   131   130    1
    24   131   132   ar
    25   128   129    2
    26   142   143    1
    27   123   124    1
    28   123   125    1
    29   134   132   ar
    30   108   109    2
    31   108   107    1
    32    86    87    1
    33    99    98    2
    34    88    87    1
    35    88    96   am
    36    98    97    1
    37    98   106   am
    38    97    96    1
    39    97   100    1
    40   143   145   ar
    41   143   144   ar
    42   112   111    1
    43   112   113    1
    44   111   110    1
    45   107   106    1
    46   107   110    1
    47    87    90    1
    48    90    91    1
    49   146   147    1
    50   147   150    1
    51   147   148    1
    52   168   165    1
    53   168   169    1
    54   170   171    1
    55   170   169    1
    56   100   101    1
    57   150   151    1
    58   150   152    1
    59   153   148   am
    60   153   154    1
    61   167   166    2
    62   113   114    1
    63   165   166    1
    64   165   164    1
    65    91    92   ar
    66    91    93   ar
    67   173   172    1
    68   171   172    2
    69   148   149    2
    70   157   154    1
    71   172   174    1
    72    92    94   ar
    73   166   175   am
    74   156   155    2
    75   101   103   ar
    76   101   102   ar
    77   154   155    1
    78    93    95   ar
    79   164   160   am
    80   161   160    2
    81   155   158   am
    82   103   105   ar
    83   160   159    1
    84    17    15   am
    85    94    95   ar
    86   102   104   ar
    87   175   176    1
    88   158   159    1
    89   159   162    1
    90   178   177    2
    91   105   104   ar
    92   177   176    1
    93   176   179    1
    94    14    15    1
    95    14    11    1
    96    15    16    2
    97    10    11    1
    98   182   180    1
    99    11    12    1
   100   162   163    1
   101     5     6    1
   102     5     2    1
   103   179   180    1
   104     4     3    2
   105   180   181    1
   106     6     7    1
   107    85    83   ar
   108     3     2    1
   109     2     1    1
   110    84    83   ar
   111    12    13    2
   112    12    18   am
   113    83    82    1
   114    18    19    1
   115     7     8    1
   116    82    81    1
   117     8     9    1
   118    21    20    2
   119    19    20    1
   120    19    22    1
   121    81    78    1
   122    20    26   am
   123    56    54    1
   124    22    23    1
   125    25    23    1
   126    48    47    2
   127    26    27    1
   128    78    77    1
   129    78    79    1
   130    54    51    1
   131    54    55    1
   132    27    28    1
   133    53    52    2
   134    47    46    1
   135    23    24    1
   136    51    52    1
   137    51    50    1
   138    80    79    2
   139    28    29    2
   140    62    61    1
   141    61    58    1
   142    68    67    1
   143    46    49    1
   144    46    45    1
   145    75    74   ar
   146    45    36   am
   147    44    42    1
   148    67    64    1
   149    59    58    1
   150    59    60    2
   151    73    74    1
   152    73    70    1
   153    58    57    1
   154    71    70    1
   155    71    72    2
   156    74    76   ar
   157    36    35    1
   158    36    37    2
   159    38    35    1
   160    38    39    1
   161    42    41    2
   162    42    43    1
   163    70    69    1
   164    41    40    1
   165    35    34    1
   166    63    64    1
   167    64    65    1
   168    39    40    1
   169    66    65    2
   170    33    32    2
   171    34    32   am
   172    32    31    1
   173    31    30    1
