@<TRIPOS>MOLECULE
tmp/1b4nC00.pdb
 115 111 0 0 0
SMALL
GASTEIGER

@<TRIPOS>ATOM
      1  N         45.4180   48.7100   61.9350 N.3   240  THR240     -0.1218
      2  CA        46.5560   48.6480   61.0420 C.3   240  THR240      0.1862
      3  C         47.6700   47.8060   61.6400 C.2   240  THR240      0.2287
      4  O         48.6170   47.4270   60.9490 O.2   240  THR240     -0.2866
      5  CB        47.0910   50.0650   60.7000 C.3   240  THR240      0.1770
      6  OG1       47.4150   50.7820   61.8980 O.3   240  THR240     -0.2211
      7  CG2       46.0470   50.8430   59.9170 C.3   240  THR240      0.0375
      8  N         49.5020   44.4620   60.2340 N.3   243  ALA243     -0.1245
      9  CA        50.5120   44.4360   59.1800 C.3   243  ALA243      0.1562
     10  C         51.8980   44.0100   59.6700 C.2   243  ALA243      0.2260
     11  O         52.7480   43.6070   58.8640 O.2   243  ALA243     -0.2867
     12  CB        50.5920   45.7980   58.4930 C.3   243  ALA243      0.0290
     13  N         50.3730   50.9360   62.5330 N.3   307  TYR307     -0.1227
     14  CA        51.4480   50.1010   61.9970 C.3   307  TYR307      0.1736
     15  C         52.7260   50.7990   61.6460 C.2   307  TYR307      0.2595
     16  O         53.8080   50.3510   62.0110 O.2   307  TYR307     -0.2718
     17  CB        51.0160   49.3490   60.7470 C.3   307  TYR307      0.0548
     18  CG        52.2020   48.7430   60.0080 C.ar  307  TYR307     -0.0200
     19  CD1       52.9240   47.6850   60.5560 C.ar  307  TYR307     -0.0009
     20  CD2       52.5910   49.2170   58.7490 C.ar  307  TYR307     -0.0009
     21  CE1       54.0030   47.1050   59.8640 C.ar  307  TYR307      0.0417
     22  CE2       53.6670   48.6440   58.0480 C.ar  307  TYR307      0.0417
     23  CZ        54.3630   47.5910   58.6130 C.ar  307  TYR307      0.1957
     24  OH        55.4110   47.0170   57.9340 O.3   307  TYR307     -0.2866
     25  N         52.6070   51.8750   60.8890 N.am  308  GLU308     -0.1979
     26  CA        53.7720   52.6130   60.4520 C.3   308  GLU308      0.1602
     27  C         54.5700   53.1580   61.6430 C.2   308  GLU308      0.2287
     28  O         55.8120   53.2260   61.6000 O.2   308  GLU308     -0.2864
     29  CB        53.3250   53.7250   59.5000 C.3   308  GLU308      0.0415
     30  CG        54.0390   53.7190   58.1430 C.3   308  GLU308      0.1163
     31  CD        53.6620   52.5520   57.2120 C.2   308  GLU308      0.3649
     32  OE1       52.4700   52.1800   57.0970 O.co2 308  GLU308     -0.2457
     33  OE2       54.5840   52.0090   56.5680 O.co2 308  GLU308     -0.2457
     34  N         57.4100   49.5000   54.4940 N.3   416  TYR416     -0.1241
     35  CA        57.3990   48.3600   53.5850 C.3   416  TYR416      0.1605
     36  C         58.7390   48.2230   52.8900 C.2   416  TYR416      0.2264
     37  O         59.1140   49.0740   52.0850 O.2   416  TYR416     -0.2867
     38  CB        56.2930   48.5370   52.5550 C.3   416  TYR416      0.0534
     39  CG        54.9310   48.4090   53.1710 C.ar  416  TYR416     -0.0201
     40  CD1       54.4280   47.1640   53.5060 C.ar  416  TYR416     -0.0009
     41  CD2       54.1720   49.5320   53.4910 C.ar  416  TYR416     -0.0009
     42  CE1       53.2020   47.0280   54.1530 C.ar  416  TYR416      0.0417
     43  CE2       52.9340   49.4060   54.1470 C.ar  416  TYR416      0.0417
     44  CZ        52.4650   48.1460   54.4730 C.ar  416  TYR416      0.1957
     45  OH        51.2670   47.9680   55.1230 O.3   416  TYR416     -0.2866
     46  N         53.5200   55.2540   51.0970 N.3   437  HIS437     -0.1241
     47  CA        52.6860   54.1530   50.6150 C.3   437  HIS437      0.1621
     48  C         51.2580   54.6870   50.5140 C.2   437  HIS437      0.2264
     49  O         50.3300   53.9790   50.1110 O.2   437  HIS437     -0.2867
     50  CB        52.7180   53.0100   51.6250 C.3   437  HIS437      0.0745
     51  CG        52.1980   53.4060   52.9720 C.ar  437  HIS437      0.0817
     52  ND1       52.9900   54.0220   53.9200 N.ar  437  HIS437     -0.2268
     53  CD2       50.9430   53.3860   53.4860 C.ar  437  HIS437      0.1154
     54  CE1       52.2440   54.3680   54.9560 C.ar  437  HIS437      0.1986
     55  NE2       50.9980   53.9940   54.7180 N.ar  437  HIS437     -0.2212
     56  N         49.4130   51.4930   47.8990 N.3   441  TRP441     -0.1241
     57  CA        49.8450   50.3920   48.7610 C.3   441  TRP441      0.1605
     58  C         49.5440   49.1510   47.9260 C.2   441  TRP441      0.2264
     59  O         48.5350   48.4740   48.1270 O.2   441  TRP441     -0.2867
     60  CB        49.0240   50.3960   50.0610 C.3   441  TRP441      0.0550
     61  CG        49.3590   49.2910   51.0290 C.ar  441  TRP441      0.0003
     62  CD1       50.5550   49.0740   51.6500 C.ar  441  TRP441      0.0946
     63  CD2       48.4800   48.2470   51.4720 C.ar  441  TRP441      0.0152
     64  NE1       50.4720   47.9580   52.4490 N.ar  441  TRP441     -0.2442
     65  CE2       49.2100   47.4340   52.3570 C.ar  441  TRP441      0.0810
     66  CE3       47.1430   47.9210   51.2020 C.ar  441  TRP441      0.0012
     67  CZ2       48.6520   46.3150   52.9780 C.ar  441  TRP441      0.0191
     68  CZ3       46.5870   46.8000   51.8240 C.ar  441  TRP441      0.0001
     69  CH2       47.3430   46.0160   52.6980 C.ar  441  TRP441      0.0015
     70  N         43.5600   56.2540   45.7680 N.3   473  ARG473     -0.1245
     71  CA        44.1330   56.6470   47.0460 C.3   473  ARG473      0.1563
     72  C         44.8300   57.9930   47.0570 C.2   473  ARG473      0.2260
     73  O         44.7360   58.7240   48.0410 O.2   473  ARG473     -0.2867
     74  CB        45.1000   55.5690   47.5290 C.3   473  ARG473      0.0307
     75  CG        44.5660   54.1540   47.3870 C.3   473  ARG473      0.0489
     76  CD        45.7170   53.1850   47.2590 C.3   473  ARG473      0.2205
     77  NE        46.6840   53.4030   48.3240 N.pl3 473  ARG473     -0.0865
     78  CZ        46.6420   52.7780   49.4930 C.cat 473  ARG473      0.5346
     79  NH1       45.6790   51.9020   49.7300 N.pl3 473  ARG473      0.1354
     80  NH2       47.5560   53.0300   50.4200 N.pl3 473  ARG473      0.1354
     81  N         40.1960   55.8650   53.1730 N.3   484  ARG484     -0.1231
     82  CA        40.3230   54.7680   52.2250 C.3   484  ARG484      0.1694
     83  C         40.2580   53.3660   52.8460 C.2   484  ARG484      0.2591
     84  O         39.9410   52.3880   52.1600 O.2   484  ARG484     -0.2718
     85  CB        41.6290   54.9180   51.4550 C.3   484  ARG484      0.0321
     86  CG        42.8100   55.0040   52.3450 C.3   484  ARG484      0.0489
     87  CD        44.0480   54.9890   51.5270 C.3   484  ARG484      0.2205
     88  NE        45.2020   54.5720   52.3150 N.pl3 484  ARG484     -0.0865
     89  CZ        46.1950   55.3780   52.6650 C.cat 484  ARG484      0.5346
     90  NH1       46.1720   56.6450   52.2970 N.pl3 484  ARG484      0.1354
     91  NH2       47.2220   54.9120   53.3630 N.pl3 484  ARG484      0.1354
     92  N         40.5600   53.2700   54.1350 N.am  485  LEU485     -0.1980
     93  CA        40.5340   51.9930   54.8360 C.3   485  LEU485      0.1596
     94  C         39.2160   51.2290   54.7530 C.2   485  LEU485      0.2287
     95  O         39.2230   50.0120   54.6020 O.2   485  LEU485     -0.2864
     96  CB        40.9240   52.2010   56.2880 C.3   485  LEU485      0.0297
     97  CG        42.3140   52.8170   56.4420 C.3   485  LEU485      0.0022
     98  CD1       42.7850   52.6720   57.8900 C.3   485  LEU485      0.0001
     99  CD2       43.2810   52.1450   55.4830 C.3   485  LEU485      0.0001
    100  N         39.7500   49.7420   51.4830 N.3   488  VAL488     -0.1231
    101  CA        40.9970   48.9840   51.5020 C.3   488  VAL488      0.1692
    102  C         40.9560   47.7710   52.4280 C.2   488  VAL488      0.2591
    103  O         41.2260   46.6550   52.0040 O.2   488  VAL488     -0.2718
    104  CB        42.1730   49.8990   51.9510 C.3   488  VAL488      0.0266
    105  CG1       43.4190   49.0850   52.2140 C.3   488  VAL488      0.0020
    106  CG2       42.4490   50.9440   50.9070 C.3   488  VAL488      0.0020
    107  N         40.6060   48.0000   53.6920 N.am  489  GLU489     -0.1979
    108  CA        40.5730   46.9540   54.7180 C.3   489  GLU489      0.1602
    109  C         39.3570   46.0340   54.8020 C.2   489  GLU489      0.2287
    110  O         39.5150   44.8180   54.7980 O.2   489  GLU489     -0.2864
    111  CB        40.8190   47.5870   56.0940 C.3   489  GLU489      0.0415
    112  CG        42.1210   48.4130   56.1740 C.3   489  GLU489      0.1163
    113  CD        43.3740   47.5540   56.3120 C.2   489  GLU489      0.3649
    114  OE1       43.2240   46.3220   56.4450 O.co2 489  GLU489     -0.2457
    115  OE2       44.5070   48.1020   56.2950 O.co2 489  GLU489     -0.2457
@<TRIPOS>BOND
     1    70    71    1
     2    71    72    1
     3    71    74    1
     4    72    73    2
     5    76    75    1
     6    76    77    1
     7    75    74    1
     8    56    57    1
     9    58    59    2
    10    58    57    1
    11    77    78    2
    12    57    60    1
    13    78    79    1
    14    78    80    1
    15    60    61    1
    16    49    48    2
    17    48    47    1
    18    47    46    1
    19    47    50    1
    20   106   104    1
    21    61    63   ar
    22    61    62   ar
    23    66    63   ar
    24    66    68   ar
    25    85    82    1
    26    85    86    1
    27    63    65   ar
    28   100   101    1
    29   101   104    1
    30   101   102    1
    31    87    88    1
    32    87    86    1
    33    50    51    1
    34    62    64   ar
    35    68    69   ar
    36   104   105    1
    37   103   102    2
    38    37    36    2
    39    84    83    2
    40    82    83    1
    41    82    81    1
    42    90    89    1
    43    88    89    2
    44    65    64   ar
    45    65    67   ar
    46   102   107   am
    47    38    39    1
    48    38    35    1
    49    89    91    1
    50    69    67   ar
    51    83    92   am
    52    36    35    1
    53    51    53   ar
    54    51    52   ar
    55    39    41   ar
    56    39    40   ar
    57    53    55   ar
    58    41    43   ar
    59    40    42   ar
    60    35    34    1
    61   107   108    1
    62    52    54   ar
    63    92    93    1
    64    43    44   ar
    65    42    44   ar
    66    44    45    1
    67    95    94    2
    68    55    54   ar
    69   108   109    1
    70   108   111    1
    71    94    93    1
    72   110   109    2
    73    93    96    1
    74    99    97    1
    75   111   112    1
    76   112   113    1
    77    96    97    1
    78   115   113   ar
    79   113   114   ar
    80    97    98    1
    81    33    31   ar
    82    32    31   ar
    83    31    30    1
    84    24    23    1
    85    22    23   ar
    86    22    20   ar
    87    30    29    1
    88    12     9    1
    89    23    21   ar
    90    20    18   ar
    91    11    10    2
    92     9    10    1
    93     9     8    1
    94    29    26    1
    95    21    19   ar
    96     7     5    1
    97    18    19   ar
    98    18    17    1
    99    26    25    1
   100    26    27    1
   101     5     2    1
   102     5     6    1
   103    17    14    1
   104    25    15   am
   105     4     3    2
   106     2     3    1
   107     2     1    1
   108    28    27    2
   109    15    14    1
   110    15    16    2
   111    14    13    1
