@<TRIPOS>MOLECULE
tmp/1b4pA01.pdb
 109 105 0 0 0
SMALL
GASTEIGER

@<TRIPOS>ATOM
      1  N         13.3000   36.2280   30.0870 N.3     1  PRO1       -0.2116
      2  CA        14.6260   35.7090   30.5170 C.3     1  PRO1        0.1372
      3  C         15.2980   34.9080   29.3900 C.2     1  PRO1        0.2244
      4  O         14.6390   34.6190   28.3580 O.2     1  PRO1       -0.2868
      5  CB        14.2690   34.8010   31.7120 C.3     1  PRO1        0.0268
      6  CG        12.7650   34.9090   31.8890 C.3     1  PRO1        0.0207
      7  CD        12.3350   35.1010   30.3960 C.3     1  PRO1        0.0892
      8  N         26.2520   32.4740   34.0320 N.3    20  LEU20      -0.1231
      9  CA        24.9280   33.0790   34.1530 C.3    20  LEU20       0.1693
     10  C         24.7590   33.6130   35.6450 C.2    20  LEU20       0.2591
     11  O         24.2910   34.7550   35.8450 O.2    20  LEU20      -0.2718
     12  CB        23.8260   32.0600   33.7770 C.3    20  LEU20       0.0284
     13  CG        23.7030   31.7460   32.2700 C.3    20  LEU20       0.0019
     14  CD1       22.7680   30.5420   32.1680 C.3    20  LEU20       0.0001
     15  CD2       23.1660   32.9690   31.5590 C.3    20  LEU20       0.0001
     16  N         25.2530   32.7940   36.5150 N.am   21  GLU21      -0.1979
     17  CA        25.1540   33.1100   37.9740 C.3    21  GLU21       0.1602
     18  C         25.9440   34.3010   38.3840 C.2    21  GLU21       0.2287
     19  O         25.4730   35.2930   39.0200 O.2    21  GLU21      -0.2864
     20  CB        25.3830   31.9230   38.8890 C.3    21  GLU21       0.0415
     21  CG        24.2960   30.8730   38.9150 C.3    21  GLU21       0.1163
     22  CD        23.0590   31.2160   39.6790 C.2    21  GLU21       0.3649
     23  OE1       23.1160   31.9110   40.6800 O.co2  21  GLU21      -0.2457
     24  OE2       21.9800   30.7370   39.2180 O.co2  21  GLU21      -0.2457
     25  N         24.6980   37.5840   37.2100 N.3    24  ASP24      -0.1225
     26  CA        23.3710   38.0440   37.6670 C.3    24  ASP24       0.1805
     27  C         22.3330   38.0860   36.5440 C.2    24  ASP24       0.2598
     28  O         21.4420   38.9430   36.4970 O.2    24  ASP24      -0.2718
     29  CB        23.6580   39.3920   38.3790 C.3    24  ASP24       0.1424
     30  CG        23.2420   39.1050   39.8410 C.2    24  ASP24       0.3668
     31  OD1       23.7160   38.1140   40.3810 O.co2  24  ASP24      -0.2456
     32  OD2       22.2750   39.7930   40.2130 O.co2  24  ASP24      -0.2456
     33  N         22.5540   37.2080   35.5890 N.am   25  SER25      -0.1938
     34  CA        21.6740   37.1280   34.3900 C.3    25  SER25       0.2055
     35  C         20.3640   36.5150   34.8940 C.2    25  SER25       0.2644
     36  O         20.2990   35.6460   35.7490 O.2    25  SER25      -0.2714
     37  CB        22.3720   36.2170   33.3860 C.3    25  SER25       0.2130
     38  OG        23.4910   36.8850   32.8610 O.3    25  SER25      -0.2179
     39  N         19.2870   36.9830   34.3130 N.am   26  SER26      -0.1935
     40  CA        17.9280   36.4180   34.5680 C.3    26  SER26       0.2055
     41  C         17.7530   35.2680   33.6000 C.2    26  SER26       0.2643
     42  O         17.8840   35.4510   32.3600 O.2    26  SER26      -0.2714
     43  CB        16.9860   37.6100   34.4180 C.3    26  SER26       0.2130
     44  OG        15.6910   37.1430   34.0400 O.3    26  SER26      -0.2179
     45  N         17.5910   34.0480   34.0960 N.am   27  TYR27      -0.1959
     46  CA        17.5010   32.8880   33.2000 C.3    27  TYR27       0.1771
     47  C         16.5840   31.8160   33.7640 C.2    27  TYR27       0.2619
     48  O         16.2540   31.8110   34.9680 O.2    27  TYR27      -0.2715
     49  CB        18.8980   32.2800   32.8760 C.3    27  TYR27       0.0574
     50  CG        19.5240   31.5040   34.0260 C.ar   27  TYR27      -0.0198
     51  CD1       20.1520   32.1850   35.0820 C.ar   27  TYR27      -0.0009
     52  CD2       19.5020   30.1260   34.0770 C.ar   27  TYR27      -0.0009
     53  CE1       20.7060   31.4330   36.1330 C.ar   27  TYR27       0.0417
     54  CE2       20.0520   29.3830   35.1150 C.ar   27  TYR27       0.0417
     55  CZ        20.7020   30.0840   36.1540 C.ar   27  TYR27       0.1957
     56  OH        21.2190   29.2600   37.1350 O.3    27  TYR27      -0.2866
     57  N         16.1320   30.9170   32.9360 N.am   28  GLU28      -0.1963
     58  CA        15.4210   29.7090   33.2070 C.3    28  GLU28       0.1733
     59  C         16.1200   28.5840   32.4740 C.2    28  GLU28       0.2616
     60  O         16.8460   28.8020   31.4550 O.2    28  GLU28      -0.2715
     61  CB        13.9450   29.5820   32.8920 C.3    28  GLU28       0.0429
     62  CG        13.5280   29.8230   31.4430 C.3    28  GLU28       0.1163
     63  CD        12.0220   30.0700   31.3250 C.2    28  GLU28       0.3649
     64  OE1       11.3070   29.1390   30.9550 O.co2  28  GLU28      -0.2457
     65  OE2       11.6840   31.2270   31.6860 O.co2  28  GLU28      -0.2457
     66  N         16.1340   27.4360   33.0650 N.am   29  GLU29      -0.1977
     67  CA        16.7340   26.2380   32.5610 C.3    29  GLU29       0.1602
     68  C         15.7400   25.1530   32.1950 C.2    29  GLU29       0.2287
     69  O         14.8040   24.8570   32.9850 O.2    29  GLU29      -0.2864
     70  CB        17.7180   25.4760   33.4940 C.3    29  GLU29       0.0415
     71  CG        19.0830   26.1280   33.5350 C.3    29  GLU29       0.1163
     72  CD        20.0460   25.0740   34.0630 C.2    29  GLU29       0.3649
     73  OE1       20.3980   23.9720   33.7290 O.co2  29  GLU29      -0.2457
     74  OE2       20.3670   25.6210   35.1340 O.co2  29  GLU29      -0.2457
     75  N         16.1360   21.1680   31.5740 N.3    31  ARG31      -0.1245
     76  CA        17.1010   20.0950   31.7410 C.3    31  ARG31       0.1563
     77  C         16.4150   18.8640   31.1910 C.2    31  ARG31       0.2260
     78  O         15.3710   18.5110   31.7450 O.2    31  ARG31      -0.2867
     79  CB        17.5890   19.8740   33.2130 C.3    31  ARG31       0.0307
     80  CG        18.3650   21.1360   33.6850 C.3    31  ARG31       0.0489
     81  CD        18.9320   20.8450   35.0690 C.3    31  ARG31       0.2205
     82  NE        19.5800   22.0890   35.5630 N.pl3  31  ARG31      -0.0865
     83  CZ        19.8870   22.3700   36.8710 C.cat  31  ARG31       0.5346
     84  NH1       19.4360   21.5320   37.8020 N.pl3  31  ARG31       0.1354
     85  NH2       20.5610   23.4850   37.1130 N.pl3  31  ARG31       0.1354
     86  N         28.8740   35.4010   44.2880 N.3   192  LYS192     -0.1245
     87  CA        27.8090   34.7750   43.4490 C.3   192  LYS192      0.1561
     88  C         27.9510   33.3150   43.2300 C.2   192  LYS192      0.2260
     89  O         26.9600   32.5530   43.0950 O.2   192  LYS192     -0.2867
     90  CB        27.6070   35.5040   42.1240 C.3   192  LYS192      0.0271
     91  CG        27.1580   36.9250   42.2810 C.3   192  LYS192      0.0035
     92  CD        25.6900   37.0580   42.7030 C.3   192  LYS192      0.0206
     93  CE        25.6950   38.2580   43.6740 C.3   192  LYS192      0.1093
     94  NZ        24.6500   39.2370   43.2980 N.3   192  LYS192     -0.1314
     95  N         19.5200   25.6040   45.4370 N.3   200  GLY200     -0.1210
     96  CA        18.8570   24.4400   44.8470 C.3   200  GLY200      0.1956
     97  C         18.9730   24.4800   43.2910 C.2   200  GLY200      0.2611
     98  O         18.6210   23.4690   42.6800 O.2   200  GLY200     -0.2717
     99  N         19.6300   25.4870   42.7890 N.am  201  ARG201     -0.1979
    100  CA        19.8270   25.5250   41.2780 C.3   201  ARG201      0.1597
    101  C         21.0590   24.7510   40.8790 C.2   201  ARG201      0.2287
    102  O         21.2960   24.3570   39.6790 O.2   201  ARG201     -0.2864
    103  CB        20.0150   27.0000   40.9370 C.3   201  ARG201      0.0334
    104  CG        18.8740   27.9490   41.2820 C.3   201  ARG201      0.0492
    105  CD        19.0550   29.3150   40.8290 C.3   201  ARG201      0.2205
    106  NE        20.2070   30.0310   41.2830 N.pl3 201  ARG201     -0.0865
    107  CZ        20.4360   30.4960   42.5130 C.cat 201  ARG201      0.5346
    108  NH1       19.4810   30.3760   43.4720 N.pl3 201  ARG201      0.1354
    109  NH2       21.5770   31.1030   42.8410 N.pl3 201  ARG201      0.1354
@<TRIPOS>BOND
     1     4     3    2
     2     3     2    1
     3     1     7    1
     4     1     2    1
     5     7     6    1
     6     2     5    1
     7    64    63   ar
     8    77    76    1
     9    77    78    2
    10    63    62    1
    11    63    65   ar
    12    62    61    1
    13    60    59    2
    14    15    13    1
    15    75    76    1
    16     5     6    1
    17    76    79    1
    18    14    13    1
    19    68    67    1
    20    68    69    2
    21    13    12    1
    22    42    41    2
    23    59    66   am
    24    59    58    1
    25    67    66    1
    26    67    70    1
    27    38    37    1
    28    49    46    1
    29    49    50    1
    30    61    58    1
    31    57    58    1
    32    57    47   am
    33    46    47    1
    34    46    45    1
    35    79    80    1
    36    37    34    1
    37    70    71    1
    38    71    72    1
    39    41    45   am
    40    41    40    1
    41    80    81    1
    42    73    72   ar
    43    47    48    2
    44    12     9    1
    45    50    52   ar
    46    50    51   ar
    47     8     9    1
    48    44    43    1
    49    72    74   ar
    50    52    54   ar
    51     9    10    1
    52    39    40    1
    53    39    35   am
    54    34    35    1
    55    34    33    1
    56    43    40    1
    57    35    36    2
    58    81    82    1
    59    51    53   ar
    60    54    55   ar
    61    82    83    2
    62    33    27   am
    63    10    11    2
    64    10    16   am
    65    53    55   ar
    66    55    56    1
    67    28    27    2
    68    16    17    1
    69    27    26    1
    70    83    85    1
    71    83    84    1
    72    25    26    1
    73    26    29    1
    74    17    18    1
    75    17    20    1
    76    29    30    1
    77    18    19    2
    78    20    21    1
    79    21    22    1
    80    24    22   ar
    81   102   101    2
    82    22    23   ar
    83    30    32   ar
    84    30    31   ar
    85   105   104    1
    86   105   106    1
    87   101   100    1
    88   103   100    1
    89   103   104    1
    90   100    99    1
    91   106   107    2
    92    90    91    1
    93    90    87    1
    94    91    92    1
    95   107   109    1
    96   107   108    1
    97    98    97    2
    98    92    93    1
    99    99    97   am
   100    89    88    2
   101    88    87    1
   102    97    96    1
   103    94    93    1
   104    87    86    1
   105    96    95    1
