@<TRIPOS>MOLECULE
tmp/1b4uB00.pdb
 107 104 0 0 0
SMALL
GASTEIGER

@<TRIPOS>ATOM
      1  N         53.6760   57.4550    4.3420 N.3    11  HIS11      -0.1226
      2  CA        54.7750   56.5280    4.6740 C.3    11  HIS11       0.1752
      3  C         54.6040   55.2050    3.9260 C.2    11  HIS11       0.2596
      4  O         55.0820   54.1330    4.3100 O.2    11  HIS11      -0.2718
      5  CB        54.9400   56.2720    6.1930 C.3    11  HIS11       0.0759
      6  CG        53.6270   55.8160    6.7990 C.ar   11  HIS11       0.0818
      7  ND1       53.1180   56.2670    7.9980 N.ar   11  HIS11      -0.2268
      8  CD2       52.7200   54.9030    6.3680 C.ar   11  HIS11       0.1154
      9  CE1       51.9750   55.6850    8.2680 C.ar   11  HIS11       0.1986
     10  NE2       51.7040   54.8720    7.2570 N.ar   11  HIS11      -0.2212
     11  N         54.0510   55.3190    2.7290 N.am   12  ILE12      -0.1966
     12  CA        53.7070   54.0880    2.0060 C.3    12  ILE12       0.1712
     13  C         54.9180   53.2350    1.6950 C.2    12  ILE12       0.2458
     14  O         55.9510   53.6430    1.1680 O.2    12  ILE12      -0.2730
     15  CB        52.7450   54.3150    0.8670 C.3    12  ILE12       0.0289
     16  CG1       53.5200   54.1680   -0.4290 C.3    12  ILE12       0.0022
     17  CG2       51.9190   55.6130    0.7250 C.3    12  ILE12       0.0023
     18  CD1       52.4460   53.8400   -1.4170 C.3    12  ILE12       0.0001
     19  N         54.8420   51.9210    2.0380 N.am   13  PRO13      -0.2716
     20  CA        55.9630   51.0020    1.8970 C.3    13  PRO13       0.1536
     21  C         56.4120   50.9350    0.4440 C.2    13  PRO13       0.2598
     22  O         57.6040   50.8180    0.1510 O.2    13  PRO13      -0.2715
     23  CB        55.4320   49.6280    2.3330 C.3    13  PRO13       0.0310
     24  CG        54.2210   49.9470    3.1580 C.3    13  PRO13       0.0237
     25  CD        53.6940   51.3250    2.7320 C.3    13  PRO13       0.0939
     26  N         55.5200   51.0110   -0.5450 N.am   14  ALA14      -0.1978
     27  CA        56.0040   50.8420   -1.9360 C.3    14  ALA14       0.1597
     28  C         57.0490   51.9010   -2.2890 C.2    14  ALA14       0.2287
     29  O         57.7830   51.7380   -3.3070 O.2    14  ALA14      -0.2864
     30  CB        54.8030   50.8310   -2.8930 C.3    14  ALA14       0.0319
     31  N         52.2440   49.4250   12.4310 N.3    60  HIS60      -0.1241
     32  CA        51.2600   48.7240   11.5630 C.3    60  HIS60       0.1621
     33  C         51.3020   47.2700   11.9780 C.2    60  HIS60       0.2264
     34  O         51.8030   46.4420   11.2070 O.2    60  HIS60      -0.2867
     35  CB        51.7390   48.8990   10.1130 C.3    60  HIS60       0.0745
     36  CG        51.5690   50.3510    9.6300 C.ar   60  HIS60       0.0817
     37  ND1       52.6010   51.2540    9.8350 N.ar   60  HIS60      -0.2268
     38  CD2       50.5590   50.9560    8.9500 C.ar   60  HIS60       0.1154
     39  CE1       52.2240   52.4020    9.2880 C.ar   60  HIS60       0.1986
     40  NE2       51.0090   52.3010    8.7890 N.ar   60  HIS60      -0.2212
     41  N         57.7190   50.7260    8.6610 N.3   126  HIS126     -0.1241
     42  CA        57.6700   51.5790    7.5050 C.3   126  HIS126      0.1621
     43  C         57.0220   52.9390    7.8690 C.2   126  HIS126      0.2264
     44  O         57.4410   53.9390    7.3070 O.2   126  HIS126     -0.2867
     45  CB        56.9050   50.9500    6.3330 C.3   126  HIS126      0.0745
     46  CG        55.4270   50.8080    6.5020 C.ar  126  HIS126      0.0817
     47  ND1       54.7940   49.6160    6.8320 N.ar  126  HIS126     -0.2268
     48  CD2       54.3810   51.6850    6.2390 C.ar  126  HIS126      0.1154
     49  CE1       53.4730   49.7990    6.8290 C.ar  126  HIS126      0.1986
     50  NE2       53.1850   51.0250    6.4840 N.ar  126  HIS126     -0.2212
     51  N         48.4870   58.7700    5.9590 N.3   191  GLY191     -0.1225
     52  CA        47.5260   59.4550    5.1310 C.3   191  GLY191      0.1811
     53  C         48.0050   59.4460    3.6930 C.2   191  GLY191      0.2280
     54  O         49.0580   58.8460    3.4960 O.2   191  GLY191     -0.2866
     55  N         42.8100   56.8160    1.9460 N.3   194  HIS194     -0.1241
     56  CA        43.0290   55.5190    1.3430 C.3   194  HIS194      0.1621
     57  C         42.1980   54.4340    2.0480 C.2   194  HIS194      0.2264
     58  O         41.7950   54.5630    3.2150 O.2   194  HIS194     -0.2867
     59  CB        44.4830   55.0820    1.3300 C.3   194  HIS194      0.0745
     60  CG        45.2920   55.0430    2.5590 C.ar  194  HIS194      0.0817
     61  ND1       45.4290   56.0320    3.4820 N.ar  194  HIS194     -0.2268
     62  CD2       46.2300   54.1140    2.9680 C.ar  194  HIS194      0.1154
     63  CE1       46.3200   55.7320    4.4070 C.ar  194  HIS194      0.1986
     64  NE2       46.8670   54.5580    4.0870 N.ar  194  HIS194     -0.2212
     65  N         42.5950   50.0860    2.3410 N.3   196  LEU196     -0.1245
     66  CA        43.3380   48.8780    1.9740 C.3   196  LEU196      0.1561
     67  C         42.4900   47.6080    2.0320 C.2   196  LEU196      0.2260
     68  O         43.0650   46.5660    1.7170 O.2   196  LEU196     -0.2867
     69  CB        44.5620   48.6390    2.8710 C.3   196  LEU196      0.0270
     70  CG        45.5150   49.8210    2.9300 C.3   196  LEU196      0.0019
     71  CD1       46.6350   49.5140    3.9490 C.3   196  LEU196      0.0001
     72  CD2       46.0390   50.1290    1.5310 C.3   196  LEU196      0.0001
     73  N         44.5840   57.5080    9.6160 N.3   241  GLU241     -0.1245
     74  CA        45.9600   57.8510    9.9160 C.3   241  GLU241      0.1567
     75  C         46.1550   59.3800    9.9610 C.2   241  GLU241      0.2260
     76  O         47.1370   59.7870   10.5620 O.2   241  GLU241     -0.2867
     77  CB        47.0170   57.2830    8.9580 C.3   241  GLU241      0.0388
     78  CG        47.1390   55.7430    8.9530 C.3   241  GLU241      0.1160
     79  CD        48.0750   55.2130    7.8790 C.2   241  GLU241      0.3649
     80  OE1       48.4610   55.9350    6.9180 O.co2 241  GLU241     -0.2457
     81  OE2       48.4570   54.0300    8.0190 O.co2 241  GLU241     -0.2457
     82  N         49.8220   56.9190   -5.1990 N.3   267  ALA267     -0.1231
     83  CA        51.0880   56.2790   -4.8280 C.3   267  ALA267      0.1694
     84  C         50.6120   54.9890   -4.1510 C.2   267  ALA267      0.2593
     85  O         50.1430   54.9710   -2.9740 O.2   267  ALA267     -0.2718
     86  CB        51.8890   57.1380   -3.8570 C.3   267  ALA267      0.0304
     87  N         50.7610   53.9050   -4.9090 N.am  268  SER268     -0.1938
     88  CA        50.1800   52.6000   -4.4800 C.3   268  SER268      0.2055
     89  C         48.6800   52.6990   -4.2480 C.2   268  SER268      0.2643
     90  O         47.9860   52.9190   -5.2910 O.2   268  SER268     -0.2714
     91  CB        51.0170   52.0870   -3.3270 C.3   268  SER268      0.2130
     92  OG        50.4100   50.9850   -2.7240 O.3   268  SER268     -0.2179
     93  N         48.1060   52.6230   -3.0450 N.am  269  ASN269     -0.1957
     94  CA        46.6690   52.7510   -2.8920 C.3   269  ASN269      0.1819
     95  C         46.1570   54.1270   -2.4320 C.2   269  ASN269      0.2621
     96  O         44.9610   54.3830   -2.1500 O.2   269  ASN269     -0.2715
     97  CB        46.0710   51.7100   -1.9140 C.3   269  ASN269      0.1195
     98  CG        46.3700   50.2870   -2.4440 C.2   269  ASN269      0.2630
     99  OD1       45.8160   49.9330   -3.4920 O.2   269  ASN269     -0.2716
    100  ND2       47.3440   49.6460   -1.8160 N.am  269  ASN269     -0.0877
    101  N         47.1180   55.0210   -2.2170 N.am  270  THR270     -0.1951
    102  CA        46.7600   56.2140   -1.4750 C.3   270  THR270      0.1897
    103  C         47.0140   57.5400   -2.1730 C.2   270  THR270      0.2313
    104  O         47.7090   57.6720   -3.1550 O.2   270  THR270     -0.2863
    105  CB        47.3960   56.1620   -0.0700 C.3   270  THR270      0.1794
    106  OG1       48.3760   57.1320    0.0260 O.3   270  THR270     -0.2208
    107  CG2       47.9620   54.8740    0.3430 C.3   270  THR270      0.0378
@<TRIPOS>BOND
     1    90    89    2
     2    82    83    1
     3    87    88    1
     4    87    84   am
     5    83    84    1
     6    83    86    1
     7    88    89    1
     8    88    91    1
     9    89    93   am
    10    84    85    2
    11    99    98    2
    12    91    92    1
    13    29    28    2
    14   104   103    2
    15    93    94    1
    16    30    27    1
    17    94    95    1
    18    94    97    1
    19    98    97    1
    20    98   100   am
    21    95   101   am
    22    95    96    2
    23    28    27    1
    24   101   102    1
    25   103   102    1
    26    27    26    1
    27   102   105    1
    28    18    16    1
    29    26    21   am
    30    16    15    1
    31   105   106    1
    32   105   107    1
    33    22    21    2
    34    21    20    1
    35    17    15    1
    36    15    12    1
    37    14    13    2
    38    59    56    1
    39    59    60    1
    40    56    55    1
    41    56    57    1
    42    72    70    1
    43    13    12    1
    44    13    19   am
    45    68    67    2
    46    20    19    1
    47    20    23    1
    48    66    67    1
    49    66    65    1
    50    66    69    1
    51    12    11    1
    52    19    25    1
    53    57    58    2
    54    23    24    1
    55    60    62   ar
    56    60    61   ar
    57    11     3   am
    58    25    24    1
    59    69    70    1
    60    70    71    1
    61    62    64   ar
    62    61    63   ar
    63    54    53    2
    64    53    52    1
    65     3     4    2
    66     3     2    1
    67    64    63   ar
    68     1     2    1
    69     2     5    1
    70    52    51    1
    71     5     6    1
    72    48    50   ar
    73    48    46   ar
    74    45    46    1
    75    45    42    1
    76     8     6   ar
    77     8    10   ar
    78    50    49   ar
    79    46    47   ar
    80     6     7   ar
    81    49    47   ar
    82    80    79   ar
    83    10     9   ar
    84    44    43    2
    85    42    43    1
    86    42    41    1
    87    79    81   ar
    88    79    78    1
    89     7     9   ar
    90    40    38   ar
    91    40    39   ar
    92    38    36   ar
    93    78    77    1
    94    77    74    1
    95    39    37   ar
    96    73    74    1
    97    36    37   ar
    98    36    35    1
    99    74    75    1
   100    75    76    2
   101    35    32    1
   102    34    33    2
   103    32    33    1
   104    32    31    1
