@<TRIPOS>MOLECULE
tmp/1b4wA00.pdb
 131 129 0 0 0
SMALL
GASTEIGER

@<TRIPOS>ATOM
      1  N         31.5820   -8.7030    4.7080 N.3     2  LEU2       -0.1231
      2  CA        32.8470   -8.2750    5.2930 C.3     2  LEU2        0.1693
      3  C         34.0200   -9.1340    4.8130 C.2     2  LEU2        0.2591
      4  O         35.1530   -8.6650    4.7530 O.2     2  LEU2       -0.2718
      5  CB        32.7710   -8.3220    6.8200 C.3     2  LEU2        0.0284
      6  CG        31.6280   -7.6130    7.5460 C.3     2  LEU2        0.0019
      7  CD1       31.9740   -7.5510    9.0260 C.3     2  LEU2        0.0001
      8  CD2       31.4190   -6.2090    6.9880 C.3     2  LEU2        0.0001
      9  N         33.7490  -10.3880    4.4630 N.am    3  LEU3       -0.1980
     10  CA        34.8020  -11.2840    4.0000 C.3     3  LEU3        0.1596
     11  C         35.2780  -10.9540    2.5890 C.2     3  LEU3        0.2287
     12  O         36.3640  -11.3740    2.1700 O.2     3  LEU3       -0.2864
     13  CB        34.3300  -12.7350    4.0740 C.3     3  LEU3        0.0297
     14  CG        34.6530  -13.4720    5.3840 C.3     3  LEU3        0.0022
     15  CD1       36.0210  -14.1440    5.2650 C.3     3  LEU3        0.0001
     16  CD2       34.6440  -12.4850    6.5670 C.3     3  LEU3        0.0001
     17  N         35.1120   -7.6660    1.5950 N.3     5  PHE5       -0.1227
     18  CA        35.7400   -6.3920    1.8940 C.3     5  PHE5        0.1736
     19  C         37.1600   -6.6780    2.3100 C.2     5  PHE5        0.2595
     20  O         38.0890   -6.0100    1.8750 O.2     5  PHE5       -0.2718
     21  CB        35.0090   -5.7190    3.0390 C.3     5  PHE5        0.0547
     22  CG        35.5580   -4.3790    3.3970 C.ar    5  PHE5       -0.0202
     23  CD1       36.1600   -3.5830    2.4330 C.ar    5  PHE5       -0.0042
     24  CD2       35.4410   -3.8920    4.6910 C.ar    5  PHE5       -0.0042
     25  CE1       36.6270   -2.3290    2.7540 C.ar    5  PHE5       -0.0003
     26  CE2       35.9110   -2.6270    5.0210 C.ar    5  PHE5       -0.0003
     27  CZ        36.5020   -1.8470    4.0580 C.ar    5  PHE5       -0.0000
     28  N         37.3100   -7.6860    3.1610 N.am    6  ARG6       -0.1980
     29  CA        38.6050   -8.1110    3.6680 C.3     6  ARG6        0.1597
     30  C         39.5700   -8.4800    2.5480 C.2     6  ARG6        0.2287
     31  O         40.7580   -8.1830    2.6260 O.2     6  ARG6       -0.2864
     32  CB        38.4210   -9.3090    4.5960 C.3     6  ARG6        0.0334
     33  CG        39.6190   -9.6310    5.4680 C.3     6  ARG6        0.0492
     34  CD        39.3650  -10.8720    6.3170 C.3     6  ARG6        0.2205
     35  NE        39.7150  -12.1010    5.6110 N.pl3   6  ARG6       -0.0865
     36  CZ        40.9530  -12.5690    5.4980 C.cat   6  ARG6        0.5346
     37  NH1       41.9680  -11.9160    6.0450 N.pl3   6  ARG6        0.1354
     38  NH2       41.1760  -13.6930    4.8370 N.pl3   6  ARG6        0.1354
     39  N         40.8670   -5.1670    0.8150 N.3     9  ILE9       -0.1245
     40  CA        41.8630   -4.4840    1.6290 C.3     9  ILE9        0.1561
     41  C         43.2000   -5.1960    1.5700 C.2     9  ILE9        0.2260
     42  O         44.2440   -4.5600    1.5010 O.2     9  ILE9       -0.2867
     43  CB        41.4140   -4.4150    3.1100 C.3     9  ILE9        0.0252
     44  CG1       40.0200   -3.7820    3.2090 C.3     9  ILE9        0.0019
     45  CG2       42.4330   -3.6370    3.9290 C.3     9  ILE9        0.0019
     46  CD1       39.2380   -4.2320    4.4180 C.3     9  ILE9        0.0001
     47  N         43.8450   -7.6940    7.0170 N.3    17  PRO17      -0.2102
     48  CA        42.8150   -6.7800    7.5250 C.3    17  PRO17       0.1504
     49  C         42.3710   -7.0250    8.9580 C.2    17  PRO17       0.2575
     50  O         42.2030   -6.0850    9.7390 O.2    17  PRO17      -0.2718
     51  CB        41.6700   -6.9500    6.5370 C.3    17  PRO17       0.0282
     52  CG        42.3140   -7.4720    5.2980 C.3    17  PRO17       0.0208
     53  CD        43.4060   -8.3690    5.7860 C.3    17  PRO17       0.0893
     54  N         42.1790   -8.2870    9.3090 N.am   18  VAL18      -0.1980
     55  CA        41.7420   -8.6330   10.6570 C.3    18  VAL18       0.1595
     56  C         42.7300   -8.1810   11.7420 C.2    18  VAL18       0.2287
     57  O         42.3360   -7.8760   12.8680 O.2    18  VAL18      -0.2864
     58  CB        41.5030  -10.1550   10.7730 C.3    18  VAL18       0.0276
     59  CG1       41.6400  -10.6010   12.2040 C.3    18  VAL18       0.0022
     60  CG2       40.1170  -10.4980   10.2450 C.3    18  VAL18       0.0022
     61  N         43.3920   -3.6660   10.5190 N.3    21  TYR21      -0.1227
     62  CA        42.3040   -2.6880   10.4010 C.3    21  TYR21       0.1736
     63  C         41.0390   -2.9490   11.2170 C.2    21  TYR21       0.2595
     64  O         40.2690   -2.0290   11.4700 O.2    21  TYR21      -0.2718
     65  CB        41.8980   -2.5200    8.9330 C.3    21  TYR21       0.0548
     66  CG        42.9680   -1.9050    8.0780 C.ar   21  TYR21      -0.0200
     67  CD1       43.2010   -0.5320    8.0910 C.ar   21  TYR21      -0.0009
     68  CD2       43.7600   -2.7000    7.2600 C.ar   21  TYR21      -0.0009
     69  CE1       44.2030    0.0290    7.3110 C.ar   21  TYR21       0.0417
     70  CE2       44.7610   -2.1490    6.4790 C.ar   21  TYR21       0.0417
     71  CZ        44.9780   -0.7910    6.5060 C.ar   21  TYR21       0.1957
     72  OH        45.9630   -0.2650    5.7120 O.3    21  TYR21      -0.2866
     73  N         40.8230   -4.1910   11.6280 N.am   22  ALA22      -0.1966
     74  CA        39.6140   -4.5350   12.3650 C.3    22  ALA22       0.1728
     75  C         39.4430   -3.8040   13.6870 C.2    22  ALA22       0.2616
     76  O         38.3250   -3.6920   14.1870 O.2    22  ALA22      -0.2715
     77  CB        39.5660   -6.0310   12.5920 C.3    22  ALA22       0.0334
     78  N         40.5400   -3.3040   14.2510 N.am   23  PHE23      -0.1974
     79  CA        40.4980   -2.5990   15.5360 C.3    23  PHE23       0.1639
     80  C         41.2560   -1.2720   15.5190 C.2    23  PHE23       0.2290
     81  O         41.6160   -0.7430   16.5640 O.2    23  PHE23      -0.2864
     82  CB        41.0970   -3.4850   16.6440 C.3    23  PHE23       0.0560
     83  CG        40.5140   -4.8740   16.6990 C.ar   23  PHE23      -0.0200
     84  CD1       40.9560   -5.8620   15.8280 C.ar   23  PHE23      -0.0042
     85  CD2       39.4870   -5.1800   17.5950 C.ar   23  PHE23      -0.0042
     86  CE1       40.3780   -7.1400   15.8430 C.ar   23  PHE23      -0.0003
     87  CE2       38.9030   -6.4500   17.6190 C.ar   23  PHE23      -0.0003
     88  CZ        39.3470   -7.4280   16.7440 C.ar   23  PHE23      -0.0000
     89  N         37.2780    2.1490   12.8120 N.3    28  CYS28      -0.1221
     90  CA        37.4760    0.8970   12.0900 C.3    28  CYS28       0.1808
     91  C         36.9190   -0.3260   12.8000 C.2    28  CYS28       0.2602
     92  O         36.5270   -1.3060   12.1640 O.2    28  CYS28      -0.2717
     93  CB        38.9500    0.7060   11.8040 C.3    28  CYS28       0.0970
     94  SG        39.5830    2.0340   10.7460 S.3    28  CYS28      -0.0800
     95  N         36.8800   -0.2860   14.1230 N.am   29  GLY29      -0.1942
     96  CA        36.3410   -1.4280   14.8370 C.3    29  GLY29       0.2014
     97  C         34.8570   -1.4810   14.5560 C.2    29  GLY29       0.2639
     98  O         34.3950   -0.9070   13.5710 O.2    29  GLY29      -0.2714
     99  N         34.0980   -2.1770   15.3950 N.am   30  SER30      -0.1949
    100  CA        32.6550   -2.2250   15.1990 C.3    30  SER30       0.1924
    101  C         32.1480   -0.8490   15.6110 C.2    30  SER30       0.2314
    102  O         32.7440   -0.1960   16.4740 O.2    30  SER30      -0.2863
    103  CB        32.0240   -3.3020   16.0720 C.3    30  SER30       0.2116
    104  OG        32.2150   -4.5840   15.5050 O.3    30  SER30      -0.2180
    105  N         37.5510    4.7200    7.6180 N.3    44  CYS44      -0.1235
    106  CA        36.5560    3.9180    8.3100 C.3    44  CYS44       0.1677
    107  C         35.3470    4.7380    8.7020 C.2    44  CYS44       0.2270
    108  O         34.2320    4.2420    8.7140 O.2    44  CYS44      -0.2867
    109  CB        37.1770    3.3040    9.5500 C.3    44  CYS44       0.0956
    110  SG        38.3340    1.9770    9.1670 S.3    44  CYS44      -0.0801
    111  N         33.4450    5.0800    5.5030 N.3    47  HIS47      -0.1241
    112  CA        32.8730    3.7880    5.1620 C.3    47  HIS47       0.1621
    113  C         31.6690    3.5120    6.0630 C.2    47  HIS47       0.2264
    114  O         30.7050    2.8660    5.6500 O.2    47  HIS47      -0.2867
    115  CB        33.9270    2.6990    5.3480 C.3    47  HIS47       0.0745
    116  CG        33.4570    1.3260    4.9750 C.ar   47  HIS47       0.0817
    117  ND1       33.1300    0.3750    5.9160 N.ar   47  HIS47      -0.2268
    118  CD2       33.3160    0.7260    3.7690 C.ar   47  HIS47       0.1154
    119  CE1       32.8090   -0.7540    5.3070 C.ar   47  HIS47       0.1986
    120  NE2       32.9140   -0.5660    4.0030 N.ar   47  HIS47      -0.2212
    121  N         42.4900    3.1380    2.2700 N.3    96  PHE96      -0.1241
    122  CA        43.5210    2.5880    3.1270 C.3    96  PHE96       0.1605
    123  C         44.8430    2.6170    2.3720 C.2    96  PHE96       0.2264
    124  O         45.8850    2.9750    2.9250 O.2    96  PHE96      -0.2867
    125  CB        43.1820    1.1390    3.5030 C.3    96  PHE96       0.0534
    126  CG        41.9820    0.9980    4.4200 C.ar   96  PHE96      -0.0203
    127  CD1       41.8140    1.8340    5.5200 C.ar   96  PHE96      -0.0042
    128  CD2       41.0220    0.0230    4.1860 C.ar   96  PHE96      -0.0042
    129  CE1       40.7110    1.6950    6.3620 C.ar   96  PHE96      -0.0003
    130  CE2       39.9130   -0.1180    5.0350 C.ar   96  PHE96      -0.0003
    131  CZ        39.7620    0.7160    6.1150 C.ar   96  PHE96      -0.0000
@<TRIPOS>BOND
     1    39    40    1
     2    42    41    2
     3    41    40    1
     4    17    18    1
     5    40    43    1
     6    20    19    2
     7    18    19    1
     8    18    21    1
     9    12    11    2
    10   121   122    1
    11    19    28   am
    12   123   124    2
    13   123   122    1
    14    23    25   ar
    15    23    22   ar
    16    30    31    2
    17    30    29    1
    18    11    10    1
    19    25    27   ar
    20    21    22    1
    21    43    44    1
    22    43    45    1
    23   122   125    1
    24    28    29    1
    25    44    46    1
    26    22    24   ar
    27   125   126    1
    28    29    32    1
    29   118   120   ar
    30   118   116   ar
    31    10    13    1
    32    10     9    1
    33   120   119   ar
    34    27    26   ar
    35    13    14    1
    36   128   126   ar
    37   128   130   ar
    38   126   127   ar
    39     9     3   am
    40    32    33    1
    41    24    26   ar
    42     1     2    1
    43     4     3    2
    44     3     2    1
    45    38    36    1
    46   116   115    1
    47   116   117   ar
    48   130   131   ar
    49   112   115    1
    50   112   111    1
    51   112   113    1
    52    15    14    1
    53     2     5    1
    54    52    53    1
    55    52    51    1
    56   119   117   ar
    57    14    16    1
    58    33    34    1
    59    36    35    2
    60    36    37    1
    61   127   129   ar
    62    35    34    1
    63   114   113    2
    64    72    71    1
    65    53    47    1
    66   131   129   ar
    67    70    71   ar
    68    70    68   ar
    69    71    69   ar
    70    51    48    1
    71     5     6    1
    72     8     6    1
    73    47    48    1
    74    68    66   ar
    75    69    67   ar
    76    48    49    1
    77     6     7    1
    78   105   106    1
    79    66    67   ar
    80    66    65    1
    81   106   107    1
    82   106   109    1
    83   107   108    2
    84    65    62    1
    85    49    54   am
    86    49    50    2
    87   110   109    1
    88   110    94    1
    89    54    55    1
    90    60    58    1
    91    62    61    1
    92    62    63    1
    93    55    58    1
    94    55    56    1
    95    94    93    1
    96    58    59    1
    97    63    64    2
    98    63    73   am
    99    73    74    1
   100    56    57    2
   101    93    90    1
   102    90    91    1
   103    90    89    1
   104    92    91    2
   105    74    77    1
   106    74    75    1
   107    91    95   am
   108    98    97    2
   109    75    76    2
   110    75    78   am
   111    95    96    1
   112    78    79    1
   113    97    96    1
   114    97    99   am
   115   100    99    1
   116   100   101    1
   117   100   103    1
   118   104   103    1
   119    80    79    1
   120    80    81    2
   121    79    82    1
   122   101   102    2
   123    84    86   ar
   124    84    83   ar
   125    86    88   ar
   126    82    83    1
   127    83    85   ar
   128    88    87   ar
   129    85    87   ar
