@<TRIPOS>MOLECULE
tmp/1b54A00.pdb
 99 90 0 0 0
SMALL
GASTEIGER

@<TRIPOS>ATOM
      1  N         20.4240   23.9910    9.1810 N.3    39  VAL39      -0.1245
      2  CA        21.3250   23.5030   10.2200 C.3    39  VAL39       0.1561
      3  C         22.0580   22.2510    9.7370 C.2    39  VAL39       0.2260
      4  O         21.5070   21.1480    9.7530 O.2    39  VAL39      -0.2867
      5  CB        20.5330   23.2010   11.5110 C.3    39  VAL39       0.0252
      6  CG1       21.4430   22.6070   12.5600 C.3    39  VAL39       0.0019
      7  CG2       19.8870   24.4820   12.0250 C.3    39  VAL39       0.0019
      8  N         24.9460   21.0660   11.0520 N.3    41  LYS41      -0.1245
      9  CA        25.8300   20.5100   12.0580 C.3    41  LYS41       0.1561
     10  C         25.9470   18.9940   11.8990 C.2    41  LYS41       0.2260
     11  O         24.9750   18.3070   11.5940 O.2    41  LYS41      -0.2867
     12  CB        25.3290   20.8730   13.4640 C.3    41  LYS41       0.0271
     13  CG        24.5390   19.7850   14.1660 C.3    41  LYS41       0.0035
     14  CD        24.0570   20.2530   15.5320 C.3    41  LYS41       0.0206
     15  CE        22.5600   20.0060   15.7340 C.3    41  LYS41       0.1093
     16  NZ        21.9520   21.3230   16.0510 N.3    41  LYS41      -0.1314
     17  N         27.0590   24.3710   14.7880 N.3    62  ASN62      -0.1240
     18  CA        27.0770   24.4510   16.2350 C.3    62  ASN62       0.1653
     19  C         28.4600   24.2960   16.8410 C.2    62  ASN62       0.2266
     20  O         28.6810   24.6650   17.9930 O.2    62  ASN62      -0.2867
     21  CB        26.1590   23.3730   16.8150 C.3    62  ASN62       0.1155
     22  CG        24.7010   23.6170   16.5040 C.2    62  ASN62       0.2627
     23  OD1       24.2870   23.5980   15.3460 O.2    62  ASN62      -0.2716
     24  ND2       23.9090   23.8430   17.5420 N.am   62  ASN62      -0.0877
     25  N         25.3720   28.8170   15.5640 N.3    83  ILE83      -0.1245
     26  CA        24.2660   28.6860   16.5060 C.3    83  ILE83       0.1561
     27  C         24.5180   27.7480   17.6840 C.2    83  ILE83       0.2260
     28  O         23.5720   27.2790   18.3150 O.2    83  ILE83      -0.2867
     29  CB        22.9690   28.2200   15.7820 C.3    83  ILE83       0.0252
     30  CG1       23.1620   26.8220   15.1790 C.3    83  ILE83       0.0019
     31  CG2       22.5930   29.2230   14.7070 C.3    83  ILE83       0.0019
     32  CD1       21.9610   26.3060   14.3760 C.3    83  ILE83       0.0001
     33  N         24.2310   33.0750   19.3140 N.3   105  THR105     -0.1218
     34  CA        24.2810   32.6410   20.6920 C.3   105  THR105      0.1862
     35  C         25.0510   33.5290   21.6560 C.2   105  THR105      0.2287
     36  O         25.7040   33.0310   22.5620 O.2   105  THR105     -0.2866
     37  CB        24.8480   31.2130   20.7680 C.3   105  THR105      0.1770
     38  OG1       26.0380   31.1290   19.9750 O.3   105  THR105     -0.2211
     39  CG2       23.8210   30.2150   20.2410 C.3   105  THR105      0.0375
     40  N         17.2750   35.2400   20.2200 N.3   173  MET173     -0.1245
     41  CA        17.3050   33.8190   19.8700 C.3   173  MET173      0.1570
     42  C         16.9990   32.9030   21.0560 C.2   173  MET173      0.2261
     43  O         17.3480   33.2110   22.1870 O.2   173  MET173     -0.2867
     44  CB        18.6910   33.4550   19.3050 C.3   173  MET173      0.0387
     45  CG        18.8160   32.0230   18.7550 C.3   173  MET173      0.0595
     46  SD        19.0190   30.7100   20.0050 S.3   173  MET173     -0.1393
     47  CE        20.4030   29.7910   19.3400 C.3   173  MET173      0.0692
     48  N         16.4020   28.4460   22.2210 N.3   175  ILE175     -0.1245
     49  CA        16.3800   27.0150   21.9130 C.3   175  ILE175      0.1561
     50  C         15.0420   26.4390   22.4050 C.2   175  ILE175      0.2260
     51  O         14.7720   25.2480   22.2760 O.2   175  ILE175     -0.2867
     52  CB        17.5520   26.2490   22.6150 C.3   175  ILE175      0.0252
     53  CG1       17.6920   26.6990   24.0700 C.3   175  ILE175      0.0019
     54  CG2       18.8610   26.5060   21.8840 C.3   175  ILE175      0.0019
     55  CD1       16.8040   25.9470   25.0480 C.3   175  ILE175      0.0001
     56  N         12.3700   25.2430   15.5150 N.3   207  MET207     -0.1230
     57  CA        13.2370   24.1750   15.0480 C.3   207  MET207      0.1702
     58  C         12.3640   23.1150   14.3980 C.2   207  MET207      0.2593
     59  O         11.1970   23.3670   14.1160 O.2   207  MET207     -0.2718
     60  CB        14.0360   23.6120   16.2210 C.3   207  MET207      0.0401
     61  CG        14.6420   24.7180   17.0850 C.3   207  MET207      0.0596
     62  SD        15.8790   24.2210   18.2910 S.3   207  MET207     -0.1393
     63  CE        14.8990   23.9510   19.6770 C.3   207  MET207      0.0692
     64  N         12.9170   21.9330   14.1650 N.am  208  SER208     -0.1952
     65  CA        12.1780   20.8610   13.5000 C.3   208  SER208      0.1924
     66  C         10.8130   20.4960   14.0680 C.2   208  SER208      0.2314
     67  O          9.8710   20.2620   13.3180 O.2   208  SER208     -0.2863
     68  CB        13.0310   19.5970   13.4330 C.3   208  SER208      0.2116
     69  OG        13.7150   19.5230   12.1930 O.3   208  SER208     -0.2180
     70  N         15.2640   27.4760   12.3870 N.3   223  ARG223     -0.1231
     71  CA        16.4850   26.7080   12.1810 C.3   223  ARG223      0.1694
     72  C         16.1450   25.2130   12.1120 C.2   223  ARG223      0.2592
     73  O         15.8110   24.5880   13.1150 O.2   223  ARG223     -0.2718
     74  CB        17.4700   27.0210   13.3110 C.3   223  ARG223      0.0321
     75  CG        17.6380   28.5270   13.5560 C.3   223  ARG223      0.0489
     76  CD        18.5990   28.8310   14.6990 C.3   223  ARG223      0.2205
     77  NE        18.2270   28.1370   15.9280 N.pl3 223  ARG223     -0.0865
     78  CZ        17.3190   28.5690   16.7940 C.cat 223  ARG223      0.5346
     79  NH1       16.6770   29.7100   16.5710 N.pl3 223  ARG223      0.1354
     80  NH2       17.0310   27.8430   17.8720 N.pl3 223  ARG223      0.1354
     81  N         16.2410   24.6480   10.9140 N.am  224  ILE224     -0.1966
     82  CA        15.8860   23.2500   10.7120 C.3   224  ILE224      0.1727
     83  C         16.9690   22.3720   10.0830 C.2   224  ILE224      0.2617
     84  O         17.5590   22.7190    9.0640 O.2   224  ILE224     -0.2715
     85  CB        14.5840   23.1570    9.8560 C.3   224  ILE224      0.0290
     86  CG1       13.3890   23.6630   10.6790 C.3   224  ILE224      0.0022
     87  CG2       14.3340   21.7180    9.4200 C.3   224  ILE224      0.0023
     88  CD1       12.2470   24.1720    9.8480 C.3   224  ILE224      0.0001
     89  N         17.2150   21.2240   10.7070 N.am  225  GLY225     -0.1940
     90  CA        18.2090   20.3020   10.1980 C.3   225  GLY225      0.2014
     91  C         17.6330   18.9400    9.8660 C.2   225  GLY225      0.2639
     92  O         17.6200   18.5200    8.7110 O.2   225  GLY225     -0.2714
     93  N         17.1450   18.2580   10.8950 N.am  226  THR226     -0.1950
     94  CA        16.5820   16.9200   10.7770 C.3   226  THR226      0.1897
     95  C         15.6260   16.7230    9.6160 C.2   226  THR226      0.2313
     96  O         15.7560   15.7690    8.8560 O.2   226  THR226     -0.2863
     97  CB        15.8690   16.5250   12.0780 C.3   226  THR226      0.1794
     98  OG1       16.8420   16.3800   13.1200 O.3   226  THR226     -0.2208
     99  CG2       15.1130   15.2120   11.9130 C.3   226  THR226      0.0378
@<TRIPOS>BOND
     1    92    91    2
     2    96    95    2
     3    84    83    2
     4     1     2    1
     5    87    85    1
     6    95    94    1
     7     3     4    2
     8     3     2    1
     9    88    86    1
    10    85    86    1
    11    85    82    1
    12    91    90    1
    13    91    93   am
    14    83    89   am
    15    83    82    1
    16    90    89    1
    17     2     5    1
    18    82    81    1
    19    94    93    1
    20    94    97    1
    21    81    72   am
    22     8     9    1
    23     5     7    1
    24     5     6    1
    25    11    10    2
    26    10     9    1
    27    99    97    1
    28     9    12    1
    29    97    98    1
    30    72    71    1
    31    72    73    2
    32    71    70    1
    33    71    74    1
    34    69    68    1
    35    74    75    1
    36    67    66    2
    37    68    65    1
    38    12    13    1
    39    65    66    1
    40    65    64    1
    41    75    76    1
    42    59    58    2
    43    64    58   am
    44    13    14    1
    45    32    30    1
    46    58    57    1
    47    76    77    1
    48    31    29    1
    49    17    18    1
    50    57    56    1
    51    57    60    1
    52    30    29    1
    53    23    22    2
    54    14    15    1
    55    25    26    1
    56    15    16    1
    57    29    26    1
    58    77    78    2
    59    60    61    1
    60    18    21    1
    61    18    19    1
    62    22    21    1
    63    22    24   am
    64    26    27    1
    65    79    78    1
    66    78    80    1
    67    19    20    2
    68    61    62    1
    69    27    28    2
    70    62    63    1
    71    45    44    1
    72    45    46    1
    73    44    41    1
    74    33    34    1
    75    47    46    1
    76    41    40    1
    77    41    42    1
    78    38    37    1
    79    39    37    1
    80    34    37    1
    81    34    35    1
    82    42    43    2
    83    35    36    2
    84    54    52    1
    85    49    48    1
    86    49    50    1
    87    49    52    1
    88    51    50    2
    89    52    53    1
    90    53    55    1
