@<TRIPOS>MOLECULE
tmp/1b59A00.pdb
 180 175 0 0 0
SMALL
GASTEIGER

@<TRIPOS>ATOM
      1  N         23.3610   31.2100    9.7010 N.3    96  PHE96      -0.1241
      2  CA        23.3410   31.9900   10.9460 C.3    96  PHE96       0.1605
      3  C         24.7440   31.8860   11.5620 C.2    96  PHE96       0.2264
      4  O         25.5960   31.1290   11.0810 O.2    96  PHE96      -0.2867
      5  CB        22.2770   31.5050   11.9350 C.3    96  PHE96       0.0534
      6  CG        22.3670   30.0300   12.2700 C.ar   96  PHE96      -0.0203
      7  CD1       23.2640   29.5900   13.2310 C.ar   96  PHE96      -0.0042
      8  CD2       21.5410   29.1260   11.5550 C.ar   96  PHE96      -0.0042
      9  CE1       23.3370   28.2250   13.5090 C.ar   96  PHE96      -0.0003
     10  CE2       21.6300   27.7860   11.8860 C.ar   96  PHE96      -0.0003
     11  CZ        22.5460   27.3270   12.8210 C.ar   96  PHE96      -0.0000
     12  N         23.7060   29.0290   24.4880 N.3   107  ALA107     -0.1231
     13  CA        23.3130   29.3440   23.1000 C.3   107  ALA107      0.1694
     14  C         23.5300   30.8210   22.8380 C.2   107  ALA107      0.2592
     15  O         23.4470   31.6800   23.7180 O.2   107  ALA107     -0.2718
     16  CB        21.8230   28.9670   22.9050 C.3   107  ALA107      0.0304
     17  N         23.7380   31.1420   21.5580 N.am  108  HIS108     -0.1976
     18  CA        23.7040   32.5060   21.0290 C.3   108  HIS108      0.1656
     19  C         24.8740   33.3880   21.4600 C.2   108  HIS108      0.2291
     20  O         24.7490   34.5990   21.2490 O.2   108  HIS108     -0.2864
     21  CB        22.3670   33.2240   21.2730 C.3   108  HIS108      0.0771
     22  CG        21.1870   32.5160   20.6520 C.ar  108  HIS108      0.0820
     23  ND1       19.8970   32.9070   20.9540 N.ar  108  HIS108     -0.2267
     24  CD2       21.0880   31.4600   19.8020 C.ar  108  HIS108      0.1154
     25  CE1       19.0400   32.1430   20.3010 C.ar  108  HIS108      0.1986
     26  NE2       19.7330   31.2460   19.6010 N.ar  108  HIS108     -0.2212
     27  N         27.5240   25.4890   17.2060 N.3   128  ASP128     -0.1239
     28  CA        26.2020   25.4530   16.5670 C.3   128  ASP128      0.1674
     29  C         26.2940   26.3440   15.3360 C.2   128  ASP128      0.2266
     30  O         26.4230   27.5730   15.4520 O.2   128  ASP128     -0.2867
     31  CB        25.1570   26.0190   17.5590 C.3   128  ASP128      0.1410
     32  CG        23.7380   25.8350   17.0270 C.2   128  ASP128      0.3668
     33  OD1       23.5930   25.6840   15.7990 O.co2 128  ASP128     -0.2456
     34  OD2       22.8140   25.8560   17.8410 O.co2 128  ASP128     -0.2456
     35  N         20.4450   23.2310   10.6630 N.3   139  ASP139     -0.1239
     36  CA        20.8740   23.7250   11.9890 C.3   139  ASP139      0.1674
     37  C         21.3340   22.4600   12.7110 C.2   139  ASP139      0.2266
     38  O         20.5310   21.5630   12.9200 O.2   139  ASP139     -0.2867
     39  CB        19.7120   24.4080   12.7080 C.3   139  ASP139      0.1410
     40  CG        20.1650   25.0960   13.9940 C.2   139  ASP139      0.3668
     41  OD1       21.3060   24.8380   14.4510 O.co2 139  ASP139     -0.2456
     42  OD2       19.3830   25.8960   14.5290 O.co2 139  ASP139     -0.2456
     43  N         13.5250   26.3760   29.0960 N.3   204  ASN204     -0.1225
     44  CA        13.1080   27.4930   28.2600 C.3   204  ASN204      0.1785
     45  C         14.0130   27.6030   27.0330 C.2   204  ASN204      0.2597
     46  O         14.0660   28.6720   26.4240 O.2   204  ASN204     -0.2718
     47  CB        13.0880   28.8350   28.9890 C.3   204  ASN204      0.1169
     48  CG        14.3890   29.2700   29.6300 C.2   204  ASN204      0.2627
     49  OD1       15.2880   28.4630   29.8980 O.2   204  ASN204     -0.2716
     50  ND2       14.5040   30.5740   29.9250 N.am  204  ASN204     -0.0877
     51  N         14.6540   26.4970   26.6600 N.am  205  LEU205     -0.1966
     52  CA        15.2190   26.3630   25.3230 C.3   205  LEU205      0.1728
     53  C         14.5090   25.2180   24.5880 C.2   205  LEU205      0.2616
     54  O         13.8300   24.4040   25.2340 O.2   205  LEU205     -0.2715
     55  CB        16.7150   26.0980   25.3990 C.3   205  LEU205      0.0311
     56  CG        17.6480   27.2150   25.8650 C.3   205  LEU205      0.0022
     57  CD1       19.0920   26.6590   25.9170 C.3   205  LEU205      0.0001
     58  CD2       17.5930   28.3910   24.8800 C.3   205  LEU205      0.0001
     59  N         14.4610   25.2660   23.2620 N.am  206  ASN206     -0.1958
     60  CA        13.5290   24.4460   22.4930 C.3   206  ASN206      0.1819
     61  C         14.1450   24.0790   21.1500 C.2   206  ASN206      0.2622
     62  O         14.9680   24.8270   20.5970 O.2   206  ASN206     -0.2715
     63  CB        12.1870   25.1450   22.2110 C.3   206  ASN206      0.1195
     64  CG        11.3790   25.5250   23.4210 C.2   206  ASN206      0.2630
     65  OD1       11.3850   26.6780   23.8890 O.2   206  ASN206     -0.2716
     66  ND2       10.7270   24.5670   24.0460 N.am  206  ASN206     -0.0877
     67  N         13.7260   22.9570   20.6000 N.am  207  GLY207     -0.1940
     68  CA        13.9100   22.7720   19.1400 C.3   207  GLY207      0.2014
     69  C         12.8450   23.5940   18.3790 C.2   207  GLY207      0.2638
     70  O         12.0330   24.3040   18.9440 O.2   207  GLY207     -0.2714
     71  N         12.8270   23.4580   17.0480 N.am  208  HIS208     -0.1973
     72  CA        11.9540   24.3980   16.3010 C.3   208  HIS208      0.1656
     73  C         11.7380   23.9670   14.8600 C.2   208  HIS208      0.2291
     74  O         12.6280   23.3660   14.2730 O.2   208  HIS208     -0.2864
     75  CB        12.5460   25.8130   16.3020 C.3   208  HIS208      0.0771
     76  CG        13.9810   25.9000   15.9000 C.ar  208  HIS208      0.0820
     77  ND1       14.4320   26.2520   14.6420 N.ar  208  HIS208     -0.2267
     78  CD2       15.0860   25.6530   16.6580 C.ar  208  HIS208      0.1154
     79  CE1       15.7620   26.2070   14.6500 C.ar  208  HIS208      0.1986
     80  NE2       16.1680   25.8570   15.8550 N.ar  208  HIS208     -0.2212
     81  N         14.8370   30.4180   10.0850 N.3   215  ILE215     -0.1231
     82  CA        15.3760   29.4670   11.0730 C.3   215  ILE215      0.1692
     83  C         14.3220   29.0180   12.0690 C.2   215  ILE215      0.2592
     84  O         14.4230   27.8740   12.5590 O.2   215  ILE215     -0.2718
     85  CB        16.6160   30.0750   11.7700 C.3   215  ILE215      0.0266
     86  CG1       17.2190   29.0590   12.7610 C.3   215  ILE215      0.0019
     87  CG2       16.2540   31.3350   12.5610 C.3   215  ILE215      0.0020
     88  CD1       17.9080   27.9260   12.0250 C.3   215  ILE215      0.0001
     89  N         13.3470   29.8490   12.4200 N.am  216  HIS216     -0.1976
     90  CA        12.3620   29.4960   13.4230 C.3   216  HIS216      0.1656
     91  C         10.9880   29.7260   12.7770 C.2   216  HIS216      0.2291
     92  O         10.5390   30.8700   12.8330 O.2   216  HIS216     -0.2864
     93  CB        12.4840   30.3430   14.7030 C.3   216  HIS216      0.0771
     94  CG        11.6020   29.7780   15.7840 C.ar  216  HIS216      0.0820
     95  ND1       10.4550   29.0450   15.5020 N.ar  216  HIS216     -0.2267
     96  CD2       11.6800   29.8720   17.1390 C.ar  216  HIS216      0.1154
     97  CE1        9.8810   28.6990   16.6330 C.ar  216  HIS216      0.1986
     98  NE2       10.5880   29.1950   17.6370 N.ar  216  HIS216     -0.2212
     99  N          7.3990   25.0530   18.1510 N.3   220  THR220     -0.1218
    100  CA         8.5700   24.8290   18.9960 C.3   220  THR220      0.1862
    101  C          8.5400   23.3950   19.4960 C.2   220  THR220      0.2287
    102  O          7.4440   22.8820   19.7270 O.2   220  THR220     -0.2866
    103  CB         8.6290   25.8280   20.1690 C.3   220  THR220      0.1770
    104  OG1        7.4520   25.6960   20.9550 O.3   220  THR220     -0.2211
    105  CG2        8.6610   27.2610   19.6610 C.3   220  THR220      0.0375
    106  N         16.8850   19.7090   18.8390 N.3   241  GLU241     -0.1245
    107  CA        18.0750   20.0030   19.6680 C.3   241  GLU241      0.1567
    108  C         17.6510   19.8600   21.1220 C.2   241  GLU241      0.2260
    109  O         16.4880   20.1250   21.4710 O.2   241  GLU241     -0.2867
    110  CB        18.5940   21.4100   19.4390 C.3   241  GLU241      0.0388
    111  CG        17.6310   22.5540   19.7260 C.3   241  GLU241      0.1160
    112  CD        18.1140   23.8490   19.1160 C.2   241  GLU241      0.3649
    113  OE1       19.2980   24.2270   19.3090 O.co2 241  GLU241     -0.2457
    114  OE2       17.3590   24.5360   18.4000 O.co2 241  GLU241     -0.2457
    115  N         19.3660   20.5230   25.2780 N.3   243  PHE243     -0.1241
    116  CA        20.3750   21.2280   26.0600 C.3   243  PHE243      0.1605
    117  C         20.2850   20.6340   27.4770 C.2   243  PHE243      0.2264
    118  O         19.1530   20.5720   27.9740 O.2   243  PHE243     -0.2867
    119  CB        20.1230   22.7320   26.1840 C.3   243  PHE243      0.0534
    120  CG        20.2260   23.4960   24.8860 C.ar  243  PHE243     -0.0203
    121  CD1       19.1550   23.6150   24.0280 C.ar  243  PHE243     -0.0042
    122  CD2       21.4440   24.0580   24.5580 C.ar  243  PHE243     -0.0042
    123  CE1       19.2810   24.3080   22.8240 C.ar  243  PHE243     -0.0003
    124  CE2       21.5540   24.7800   23.3550 C.ar  243  PHE243     -0.0003
    125  CZ        20.5010   24.9000   22.4840 C.ar  243  PHE243     -0.0000
    126  N         24.2570   38.3630   18.0970 N.3   259  HIS259     -0.1226
    127  CA        23.3570   37.7850   17.1030 C.3   259  HIS259      0.1752
    128  C         22.0880   38.6070   16.8930 C.2   259  HIS259      0.2596
    129  O         21.5260   39.1770   17.8330 O.2   259  HIS259     -0.2718
    130  CB        22.8120   36.4510   17.6380 C.3   259  HIS259      0.0759
    131  CG        23.7240   35.2870   17.5880 C.ar  259  HIS259      0.0818
    132  ND1       24.9860   35.3220   18.1640 N.ar  259  HIS259     -0.2268
    133  CD2       23.5300   34.0280   17.1000 C.ar  259  HIS259      0.1154
    134  CE1       25.5520   34.1260   18.0090 C.ar  259  HIS259      0.1986
    135  NE2       24.6920   33.3340   17.3800 N.ar  259  HIS259     -0.2212
    136  N         21.7650   38.9190   15.6210 N.am  260  TYR260     -0.1962
    137  CA        20.6020   39.7500   15.2790 C.3   260  TYR260      0.1771
    138  C         19.8590   39.1200   14.1100 C.2   260  TYR260      0.2619
    139  O         20.4800   38.3810   13.3300 O.2   260  TYR260     -0.2715
    140  CB        21.1270   41.1460   14.8070 C.3   260  TYR260      0.0574
    141  CG        21.8520   41.8510   15.9420 C.ar  260  TYR260     -0.0198
    142  CD1       23.2210   41.6590   16.1670 C.ar  260  TYR260     -0.0009
    143  CD2       21.1680   42.7000   16.7860 C.ar  260  TYR260     -0.0009
    144  CE1       23.8640   42.2680   17.2310 C.ar  260  TYR260      0.0417
    145  CE2       21.8150   43.3560   17.8280 C.ar  260  TYR260      0.0417
    146  CZ        23.1620   43.1180   18.0270 C.ar  260  TYR260      0.1957
    147  OH        23.7880   43.7540   19.0880 O.3   260  TYR260     -0.2866
    148  N         18.5650   39.3880   13.9210 N.am  261  MET261     -0.1977
    149  CA        17.8970   38.8450   12.7380 C.3   261  MET261      0.1605
    150  C         16.6300   39.6870   12.4560 C.2   261  MET261      0.2287
    151  O         15.9130   40.0760   13.3680 O.2   261  MET261     -0.2864
    152  CB        17.4590   37.3920   13.0270 C.3   261  MET261      0.0413
    153  CG        16.9390   36.6340   11.8040 C.3   261  MET261      0.0598
    154  SD        16.6700   34.8770   12.1030 S.3   261  MET261     -0.1393
    155  CE        15.5510   34.8990   13.4970 C.3   261  MET261      0.0692
    156  N         19.7400   35.0790   10.1580 N.3   291  ALA291     -0.1245
    157  CA        20.4470   35.7730   11.2370 C.3   291  ALA291      0.1562
    158  C         21.8550   36.1420   10.7970 C.2   291  ALA291      0.2260
    159  O         22.5140   35.4940    9.9520 O.2   291  ALA291     -0.2867
    160  CB        20.6230   34.8120   12.4560 C.3   291  ALA291      0.0290
    161  N         19.2980   38.8340   19.6780 N.3   321  TYR321     -0.1241
    162  CA        19.2640   37.5250   20.3500 C.3   321  TYR321      0.1605
    163  C         20.5310   37.3780   21.1760 C.2   321  TYR321      0.2264
    164  O         21.5260   36.7770   20.7580 O.2   321  TYR321     -0.2867
    165  CB        19.2110   36.4780   19.2170 C.3   321  TYR321      0.0534
    166  CG        17.8700   36.3940   18.5020 C.ar  321  TYR321     -0.0201
    167  CD1       16.8580   35.5520   18.9340 C.ar  321  TYR321     -0.0009
    168  CD2       17.6460   37.1970   17.3730 C.ar  321  TYR321     -0.0009
    169  CE1       15.6480   35.5160   18.2510 C.ar  321  TYR321      0.0417
    170  CE2       16.4320   37.1650   16.7090 C.ar  321  TYR321      0.0417
    171  CZ        15.4420   36.3380   17.1630 C.ar  321  TYR321      0.1957
    172  OH        14.2450   36.2910   16.4740 O.3   321  TYR321     -0.2866
    173  N         22.4010   33.2180   25.9380 N.3   324  LEU324     -0.1245
    174  CA        21.4490   32.5990   26.8450 C.3   324  LEU324      0.1561
    175  C         22.2000   31.6710   27.8020 C.2   324  LEU324      0.2260
    176  O         22.7330   30.6710   27.3280 O.2   324  LEU324     -0.2867
    177  CB        20.3990   31.8360   26.0340 C.3   324  LEU324      0.0270
    178  CG        19.5400   32.6990   25.0790 C.3   324  LEU324      0.0019
    179  CD1       18.5750   31.8320   24.2990 C.3   324  LEU324      0.0001
    180  CD2       18.7650   33.7410   25.9050 C.3   324  LEU324      0.0001
@<TRIPOS>BOND
     1     1     2    1
     2   159   158    2
     3    81    82    1
     4   156   157    1
     5    35    36    1
     6   158   157    1
     7     2     3    1
     8     2     5    1
     9    82    85    1
    10    82    83    1
    11     4     3    2
    12   157   160    1
    13     8    10   ar
    14     8     6   ar
    15    85    87    1
    16    85    86    1
    17   153   154    1
    18   153   152    1
    19    10    11   ar
    20     5     6    1
    21    36    39    1
    22    36    37    1
    23    88    86    1
    24    83    89   am
    25    83    84    2
    26   154   155    1
    27     6     7   ar
    28    89    90    1
    29   150   149    1
    30   150   151    2
    31    39    40    1
    32    37    38    2
    33   149   152    1
    34   149   148    1
    35    91    92    2
    36    91    90    1
    37    11     9   ar
    38     7     9   ar
    39   139   138    2
    40    90    93    1
    41   148   138   am
    42    40    41   ar
    43    40    42   ar
    44   138   137    1
    45    74    73    2
    46    77    79   ar
    47    77    76   ar
    48    79    80   ar
    49    93    94    1
    50   140   137    1
    51   140   141    1
    52    73    72    1
    53   137   136    1
    54    29    30    2
    55    29    28    1
    56    95    94   ar
    57    95    97   ar
    58   136   128   am
    59    94    96   ar
    60    33    32   ar
    61    80    78   ar
    62    76    75    1
    63    76    78   ar
    64   141   142   ar
    65   141   143   ar
    66   142   144   ar
    67    72    75    1
    68    72    71    1
    69   172   171    1
    70    28    27    1
    71    28    31    1
    72    97    98   ar
    73   170   171   ar
    74   170   168   ar
    75   143   145   ar
    76   128   127    1
    77   128   129    2
    78    32    31    1
    79    32    34   ar
    80    71    69   am
    81   133   135   ar
    82   133   131   ar
    83   127   130    1
    84   127   126    1
    85    96    98   ar
    86   171   169   ar
    87   144   146   ar
    88   168   166   ar
    89   135   134   ar
    90   131   130    1
    91   131   132   ar
    92   145   146   ar
    93   134   132   ar
    94   146   147    1
    95    99   100    1
    96   169   167   ar
    97    69    70    2
    98    69    68    1
    99   114   112   ar
   100   166   167   ar
   101   166   165    1
   102   106   107    1
   103   100   101    1
   104   100   103    1
   105   112   113   ar
   106   112   111    1
   107    68    67    1
   108   165   162    1
   109   110   107    1
   110   110   111    1
   111   101   102    2
   112    26    24   ar
   113    26    25   ar
   114   105   103    1
   115   107   108    1
   116   161   162    1
   117    24    22   ar
   118   103   104    1
   119    25    23   ar
   120   162   163    1
   121    62    61    2
   122    67    61   am
   123    22    23   ar
   124    22    21    1
   125   164   163    2
   126    18    21    1
   127    18    19    1
   128    18    17    1
   129   108   109    2
   130    61    60    1
   131    20    19    2
   132    17    14   am
   133    63    60    1
   134    63    64    1
   135   125   123   ar
   136   125   124   ar
   137    60    59    1
   138   123   121   ar
   139    14    13    1
   140    14    15    2
   141    16    13    1
   142    13    12    1
   143    59    53   am
   144   124   122   ar
   145    64    65    2
   146    64    66   am
   147   121   120   ar
   148   179   178    1
   149   122   120   ar
   150    53    54    2
   151    53    52    1
   152    58    56    1
   153   120   119    1
   154   178   180    1
   155   178   177    1
   156   115   116    1
   157    52    55    1
   158    52    51    1
   159    55    56    1
   160    56    57    1
   161   173   174    1
   162   177   174    1
   163   116   119    1
   164   116   117    1
   165    46    45    2
   166    51    45   am
   167   174   175    1
   168    45    44    1
   169   176   175    2
   170   117   118    2
   171    44    47    1
   172    44    43    1
   173    47    48    1
   174    48    49    2
   175    48    50   am
