@<TRIPOS>MOLECULE
tmp/1b5dA00.pdb
 161 156 0 0 0
SMALL
GASTEIGER

@<TRIPOS>ATOM
      1  N         11.0570   -6.4130   28.4050 N.3    27  ASP27      -0.1225
      2  CA        12.2830   -5.6270   28.5610 C.3    27  ASP27       0.1805
      3  C         13.2670   -6.3070   29.5170 C.2    27  ASP27       0.2597
      4  O         12.8850   -7.1900   30.2880 O.2    27  ASP27      -0.2718
      5  CB        11.9460   -4.2190   29.0810 C.3    27  ASP27       0.1424
      6  CG        13.1680   -3.3080   29.1520 C.2    27  ASP27       0.3668
      7  OD1       13.6900   -2.9340   28.0860 O.co2  27  ASP27      -0.2456
      8  OD2       13.6200   -2.9840   30.2690 O.co2  27  ASP27      -0.2456
      9  N         14.5300   -5.8800   29.4640 N.am   28  LYS28      -0.1979
     10  CA        15.5730   -6.4030   30.3450 C.3    28  LYS28       0.1596
     11  C         15.3070   -6.1210   31.8330 C.2    28  LYS28       0.2287
     12  O         15.7530   -6.8740   32.7000 O.2    28  LYS28      -0.2864
     13  CB        16.9490   -5.8500   29.9280 C.3    28  LYS28       0.0298
     14  CG        17.1310   -4.3340   30.0910 C.3    28  LYS28       0.0038
     15  CD        18.5430   -3.8840   29.7090 C.3    28  LYS28       0.0206
     16  CE        18.8100   -2.4230   30.0970 C.3    28  LYS28       0.1093
     17  NZ        18.2280   -1.4180   29.1440 N.3    28  LYS28      -0.1314
     18  N         25.7360   18.1890   26.6260 N.3    64  TYR64      -0.1241
     19  CA        26.3610   17.7400   25.3900 C.3    64  TYR64       0.1605
     20  C         27.4910   18.6740   24.9620 C.2    64  TYR64       0.2264
     21  O         28.6030   18.2170   24.6930 O.2    64  TYR64      -0.2867
     22  CB        25.3180   17.6250   24.2790 C.3    64  TYR64       0.0534
     23  CG        24.4060   16.4110   24.3990 C.ar   64  TYR64      -0.0201
     24  CD1       24.6670   15.3890   25.3210 C.ar   64  TYR64      -0.0009
     25  CD2       23.2780   16.2940   23.5990 C.ar   64  TYR64      -0.0009
     26  CE1       23.8190   14.2850   25.4330 C.ar   64  TYR64       0.0417
     27  CE2       22.4210   15.2050   23.7100 C.ar   64  TYR64       0.0417
     28  CZ        22.6930   14.2080   24.6240 C.ar   64  TYR64       0.1957
     29  OH        21.8200   13.1480   24.7310 O.3    64  TYR64      -0.2866
     30  N         19.3960    9.0970   34.4950 N.3    82  TRP82      -0.1241
     31  CA        20.8240    9.2160   34.2320 C.3    82  TRP82       0.1605
     32  C         21.6390    8.6890   35.4050 C.2    82  TRP82       0.2264
     33  O         22.7230    8.1410   35.2150 O.2    82  TRP82      -0.2867
     34  CB        21.1940   10.6750   33.9320 C.3    82  TRP82       0.0550
     35  CG        21.0900   11.0260   32.4770 C.ar   82  TRP82       0.0003
     36  CD1       20.2800   11.9750   31.9140 C.ar   82  TRP82       0.0946
     37  CD2       21.7950   10.4080   31.3910 C.ar   82  TRP82       0.0152
     38  NE1       20.4370   11.9860   30.5410 N.ar   82  TRP82      -0.2442
     39  CE2       21.3590   11.0320   30.1970 C.ar   82  TRP82       0.0810
     40  CE3       22.7530    9.3860   31.3100 C.ar   82  TRP82       0.0012
     41  CZ2       21.8490   10.6670   28.9400 C.ar   82  TRP82       0.0191
     42  CZ3       23.2380    9.0230   30.0560 C.ar   82  TRP82       0.0001
     43  CH2       22.7840    9.6640   28.8890 C.ar   82  TRP82       0.0015
     44  N         27.1870    7.7440   26.7910 N.3    94  SER94      -0.1217
     45  CA        26.3210    8.3870   25.7970 C.3    94  SER94       0.1889
     46  C         26.1350    9.9070   25.9690 C.2    94  SER94       0.2288
     47  O         25.0020   10.4040   25.9800 O.2    94  SER94      -0.2866
     48  CB        24.9500    7.7000   25.7840 C.3    94  SER94       0.2089
     49  OG        25.0530    6.3620   25.3290 O.3    94  SER94      -0.2183
     50  N         26.4330   12.7680   23.6740 N.3    96  TYR96      -0.1241
     51  CA        26.4990   12.9180   22.2260 C.3    96  TYR96       0.1605
     52  C         27.3660   14.0800   21.7640 C.2    96  TYR96       0.2264
     53  O         27.8480   14.0860   20.6250 O.2    96  TYR96      -0.2867
     54  CB        25.0910   13.0490   21.6500 C.3    96  TYR96       0.0534
     55  CG        24.2910   11.7690   21.7280 C.ar   96  TYR96      -0.0201
     56  CD1       24.9110   10.5590   22.0630 C.ar   96  TYR96      -0.0009
     57  CD2       22.9220   11.7530   21.4430 C.ar   96  TYR96      -0.0009
     58  CE1       24.1960    9.3710   22.1100 C.ar   96  TYR96       0.0417
     59  CE2       22.1970   10.5580   21.4800 C.ar   96  TYR96       0.0417
     60  CZ        22.8430    9.3740   21.8110 C.ar   96  TYR96       0.1957
     61  OH        22.1570    8.1810   21.7980 O.3    96  TYR96      -0.2866
     62  N         25.2060    1.3020   29.8500 N.3   145  ASP145     -0.1225
     63  CA        25.0410    2.3290   28.8260 C.3   145  ASP145      0.1805
     64  C         25.6860    1.8790   27.5170 C.2   145  ASP145      0.2597
     65  O         26.8670    2.1350   27.2740 O.2   145  ASP145     -0.2718
     66  CB        25.6620    3.6510   29.3200 C.3   145  ASP145      0.1424
     67  CG        25.4390    4.8310   28.3520 C.2   145  ASP145      0.3668
     68  OD1       24.7090    4.7030   27.3480 O.co2 145  ASP145     -0.2456
     69  OD2       26.0040    5.9060   28.6080 O.co2 145  ASP145     -0.2456
     70  N         24.9240    1.1180   26.7340 N.am  146  PHE146     -0.1976
     71  CA        25.3450    0.6650   25.4150 C.3   146  PHE146      0.1639
     72  C         24.7930    1.6840   24.4330 C.2   146  PHE146      0.2290
     73  O         23.5740    1.8320   24.3100 O.2   146  PHE146     -0.2864
     74  CB        24.7600   -0.7330   25.1170 C.3   146  PHE146      0.0560
     75  CG        25.4860   -1.4940   24.0200 C.ar  146  PHE146     -0.0200
     76  CD1       25.5090   -1.0130   22.7120 C.ar  146  PHE146     -0.0042
     77  CD2       26.1210   -2.7110   24.2970 C.ar  146  PHE146     -0.0042
     78  CE1       26.1510   -1.7220   21.6900 C.ar  146  PHE146     -0.0003
     79  CE2       26.7710   -3.4330   23.2860 C.ar  146  PHE146     -0.0003
     80  CZ        26.7850   -2.9370   21.9770 C.ar  146  PHE146     -0.0000
     81  N         23.1050    3.9300   22.0380 N.3   148  CYS148     -0.1235
     82  CA        21.8700    3.7150   21.2700 C.3   148  CYS148      0.1677
     83  C         21.9130    4.2980   19.8570 C.2   148  CYS148      0.2270
     84  O         21.1530    3.8670   18.9910 O.2   148  CYS148     -0.2867
     85  CB        20.6580    4.3100   22.0150 C.3   148  CYS148      0.0956
     86  SG        20.3180    3.5450   23.6350 S.3   148  CYS148     -0.0801
     87  N         19.7160    4.3770   14.5770 N.3   167  MET167     -0.1230
     88  CA        19.7210    4.0270   15.9890 C.3   167  MET167      0.1702
     89  C         19.4740    2.5330   16.2120 C.2   167  MET167      0.2592
     90  O         18.7490    1.8790   15.4640 O.2   167  MET167     -0.2718
     91  CB        18.6660    4.8450   16.7320 C.3   167  MET167      0.0401
     92  CG        18.9450    6.3400   16.7480 C.3   167  MET167      0.0596
     93  SD        17.8040    7.1550   17.8300 S.3   167  MET167     -0.1393
     94  CE        18.4540    6.7490   19.4500 C.3   167  MET167      0.0692
     95  N         20.0690    2.0260   17.2780 N.am  168  ARG168     -0.1966
     96  CA        19.9370    0.6380   17.6900 C.3   168  ARG168      0.1729
     97  C         18.6090    0.4550   18.4400 C.2   168  ARG168      0.2617
     98  O         17.8480   -0.4810   18.1850 O.2   168  ARG168     -0.2715
     99  CB        21.1210    0.3110   18.6070 C.3   168  ARG168      0.0348
    100  CG        21.0900   -1.0380   19.2660 C.3   168  ARG168      0.0492
    101  CD        22.2860   -1.1950   20.1880 C.3   168  ARG168      0.2205
    102  NE        22.2020   -0.3570   21.3860 N.pl3 168  ARG168     -0.0865
    103  CZ        21.3480   -0.5550   22.3900 C.cat 168  ARG168      0.5346
    104  NH1       20.3370   -1.4110   22.2690 N.pl3 168  ARG168      0.1354
    105  NH2       21.4590    0.1650   23.4960 N.pl3 168  ARG168      0.1354
    106  N         18.2790    1.4630   19.2390 N.am  169  SER169     -0.1936
    107  CA        17.2620    1.3620   20.2720 C.3   169  SER169      0.2055
    108  C         16.7900    2.7890   20.5880 C.2   169  SER169      0.2643
    109  O         17.6070    3.7000   20.7370 O.2   169  SER169     -0.2714
    110  CB        17.8830    0.7110   21.5120 C.3   169  SER169      0.2130
    111  OG        16.9730    0.6260   22.5850 O.3   169  SER169     -0.2179
    112  N         15.4760    2.9950   20.5850 N.am  170  ASN170     -0.1957
    113  CA        14.9070    4.3150   20.8580 C.3   170  ASN170      0.1819
    114  C         13.5560    4.2040   21.5640 C.2   170  ASN170      0.2621
    115  O         12.6210    3.5760   21.0580 O.2   170  ASN170     -0.2715
    116  CB        14.7580    5.1040   19.5500 C.3   170  ASN170      0.1195
    117  CG        14.6280    6.6120   19.7670 C.2   170  ASN170      0.2630
    118  OD1       14.0450    7.3080   18.9340 O.2   170  ASN170     -0.2716
    119  ND2       15.2530    7.1300   20.8230 N.am  170  ASN170     -0.0877
    120  N         13.4910    4.7580   22.7700 N.am  171  ASP171     -0.1971
    121  CA        12.2340    4.9380   23.4810 C.3   171  ASP171      0.1709
    122  C         11.3690    6.0020   22.7850 C.2   171  ASP171      0.2293
    123  O         11.8020    7.1350   22.5780 O.2   171  ASP171     -0.2864
    124  CB        12.5420    5.3300   24.9330 C.3   171  ASP171      0.1436
    125  CG        11.3360    5.8860   25.6730 C.2   171  ASP171      0.3671
    126  OD1       10.1880    5.5240   25.3450 O.co2 171  ASP171     -0.2456
    127  OD2       11.5400    6.6830   26.6100 O.co2 171  ASP171     -0.2456
    128  N         12.8730    9.1580   24.7120 N.3   175  GLY175     -0.1225
    129  CA        14.0020    9.0290   23.8140 C.3   175  GLY175      0.1811
    130  C         13.8800    9.8650   22.5580 C.2   175  GLY175      0.2280
    131  O         14.6820   10.7680   22.3450 O.2   175  GLY175     -0.2866
    132  N         16.1690   13.0700   21.5490 N.3   179  ASP179     -0.1239
    133  CA        17.1340   12.7430   20.5070 C.3   179  ASP179      0.1674
    134  C         16.8950   13.5430   19.2390 C.2   179  ASP179      0.2266
    135  O         17.8350   13.8680   18.5300 O.2   179  ASP179     -0.2867
    136  CB        17.0870   11.2450   20.1860 C.3   179  ASP179      0.1410
    137  CG        17.6520   10.3870   21.3040 C.2   179  ASP179      0.3668
    138  OD1       18.4490   10.8840   22.1250 O.co2 179  ASP179     -0.2456
    139  OD2       17.2530    9.2140   21.3960 O.co2 179  ASP179     -0.2456
    140  N         10.4090    1.3590   20.6410 N.3   216  HIS216     -0.1241
    141  CA         9.5190    0.7810   21.6370 C.3   216  HIS216      0.1621
    142  C          8.8990    1.7690   22.6140 C.2   216  HIS216      0.2264
    143  O          9.4650    2.8310   22.8890 O.2   216  HIS216     -0.2867
    144  CB        10.2610   -0.3010   22.4190 C.3   216  HIS216      0.0745
    145  CG        11.6090    0.1260   22.9020 C.ar  216  HIS216      0.0817
    146  ND1       11.8070    0.6890   24.1410 N.ar  216  HIS216     -0.2268
    147  CD2       12.8170    0.1270   22.2890 C.ar  216  HIS216      0.1154
    148  CE1       13.0780    1.0240   24.2730 C.ar  216  HIS216      0.1986
    149  NE2       13.7120    0.6950   23.1600 N.ar  216  HIS216     -0.2212
    150  N          7.5560    1.6870   26.6420 N.3   218  TYR218     -0.1241
    151  CA         7.4790    0.9570   27.9120 C.3   218  TYR218      0.1605
    152  C          6.0580    0.9240   28.4770 C.2   218  TYR218      0.2264
    153  O          5.2690    1.8380   28.2310 O.2   218  TYR218     -0.2867
    154  CB         8.4070    1.5890   28.9430 C.3   218  TYR218      0.0534
    155  CG         9.8700    1.3480   28.6690 C.ar  218  TYR218     -0.0201
    156  CD1       10.5100    0.2050   29.1500 C.ar  218  TYR218     -0.0009
    157  CD2       10.6290    2.2810   27.9580 C.ar  218  TYR218     -0.0009
    158  CE1       11.8730    0.0000   28.9340 C.ar  218  TYR218      0.0417
    159  CE2       11.9910    2.0890   27.7400 C.ar  218  TYR218      0.0417
    160  CZ        12.6100    0.9490   28.2330 C.ar  218  TYR218      0.1957
    161  OH        13.9690    0.7830   28.0620 O.3   218  TYR218     -0.2866
@<TRIPOS>BOND
     1    87    88    1
     2    90    89    2
     3    88    89    1
     4    88    91    1
     5    89    95   am
     6    91    92    1
     7    92    93    1
     8    95    96    1
     9    96    97    1
    10    96    99    1
    11    93    94    1
    12    98    97    2
    13    97   106   am
    14   135   134    2
    15    99   100    1
    16   118   117    2
    17    84    83    2
    18   134   133    1
    19   106   107    1
    20   100   101    1
    21   116   117    1
    22   116   113    1
    23   117   119   am
    24    83    82    1
    25   136   133    1
    26   136   137    1
    27   101   102    1
    28   107   108    1
    29   107   110    1
    30   133   132    1
    31   112   108   am
    32   112   113    1
    33   108   109    2
    34    53    52    2
    35   140   141    1
    36   113   114    1
    37   115   114    2
    38    82    85    1
    39    82    81    1
    40   137   139   ar
    41   137   138   ar
    42   102   103    2
    43    57    59   ar
    44    57    55   ar
    45    59    60   ar
    46   110   111    1
    47   114   120   am
    48   141   144    1
    49   141   142    1
    50    54    55    1
    51    54    51    1
    52    78    80   ar
    53    78    76   ar
    54    55    56   ar
    55    52    51    1
    56    61    60    1
    57    60    58   ar
    58    80    79   ar
    59    85    86    1
    60    56    58   ar
    61    51    50    1
    62   104   103    1
    63   147   145   ar
    64   147   149   ar
    65   131   130    2
    66   103   105    1
    67   144   145    1
    68   130   129    1
    69   123   122    2
    70   142   143    2
    71    76    75   ar
    72   120   121    1
    73   122   121    1
    74   145   146   ar
    75   149   148   ar
    76    79    77   ar
    77   121   124    1
    78    25    27   ar
    79    25    23   ar
    80    27    28   ar
    81   129   128    1
    82    75    77   ar
    83    75    74    1
    84   146   148   ar
    85    22    23    1
    86    22    19    1
    87    73    72    2
    88    23    24   ar
    89    72    71    1
    90    28    29    1
    91    28    26   ar
    92    21    20    2
    93   124   125    1
    94    20    19    1
    95    74    71    1
    96    24    26   ar
    97    49    48    1
    98   126   125   ar
    99    19    18    1
   100    71    70    1
   101   125   127   ar
   102    48    45    1
   103    45    46    1
   104    45    44    1
   105    46    47    2
   106   150   151    1
   107    70    64   am
   108    65    64    2
   109    68    67   ar
   110    64    63    1
   111   159   157   ar
   112   159   160   ar
   113   151   152    1
   114   151   154    1
   115   157   155   ar
   116   161   160    1
   117     7     6   ar
   118   153   152    2
   119   160   158   ar
   120    67    69   ar
   121    67    66    1
   122     1     2    1
   123     2     5    1
   124     2     3    1
   125   155   154    1
   126   155   156   ar
   127    63    66    1
   128    63    62    1
   129    43    41   ar
   130    43    42   ar
   131   158   156   ar
   132    41    39   ar
   133     5     6    1
   134    17    16    1
   135     6     8   ar
   136     9     3   am
   137     9    10    1
   138     3     4    2
   139    15    14    1
   140    15    16    1
   141    13    14    1
   142    13    10    1
   143    42    40   ar
   144    39    38   ar
   145    39    37   ar
   146    10    11    1
   147    38    36   ar
   148    40    37   ar
   149    37    35   ar
   150    11    12    2
   151    36    35   ar
   152    35    34    1
   153    34    31    1
   154    31    30    1
   155    31    32    1
   156    33    32    2
