@<TRIPOS>MOLECULE
tmp/1b5fA00.pdb
 126 120 0 0 0
SMALL
GASTEIGER

@<TRIPOS>ATOM
      1  N         28.5410   27.1650    8.4190 N.3    67  LYS67      -0.1231
      2  CA        29.7860   27.6620    7.8480 C.3    67  LYS67       0.1693
      3  C         30.1150   26.8120    6.6250 C.2    67  LYS67       0.2592
      4  O         30.1850   25.5880    6.6850 O.2    67  LYS67      -0.2718
      5  CB        30.9280   27.6570    8.8560 C.3    67  LYS67       0.0285
      6  CG        32.2800   28.0250    8.2530 C.3    67  LYS67       0.0035
      7  CD        33.2680   28.5230    9.2930 C.3    67  LYS67       0.0206
      8  CE        34.4580   27.6010    9.5090 C.3    67  LYS67       0.1093
      9  NZ        35.7510   28.3220    9.3650 N.3    67  LYS67      -0.1314
     10  N         30.2970   27.4950    5.5040 N.am   68  GLU68      -0.1966
     11  CA        30.4900   26.7600    4.2610 C.3    68  GLU68       0.1733
     12  C         31.8080   25.9860    4.2970 C.2    68  GLU68       0.2616
     13  O         32.8060   26.3380    4.9120 O.2    68  GLU68      -0.2715
     14  CB        30.4260   27.6150    3.0010 C.3    68  GLU68       0.0429
     15  CG        30.8710   29.0490    2.9390 C.3    68  GLU68       0.1163
     16  CD        29.8600   30.0070    2.3340 C.2    68  GLU68       0.3649
     17  OE1       29.5960   29.9490    1.1100 O.co2  68  GLU68      -0.2457
     18  OE2       29.3170   30.8430    3.0970 O.co2  68  GLU68      -0.2457
     19  N         31.7380   24.8720    3.5730 N.am   69  ASN69      -0.1972
     20  CA        32.9130   24.0430    3.3370 C.3    69  ASN69       0.1688
     21  C         32.9690   23.7520    1.8370 C.2    69  ASN69       0.2292
     22  O         33.8320   24.2770    1.1430 O.2    69  ASN69      -0.2864
     23  CB        32.8640   22.7710    4.1830 C.3    69  ASN69       0.1181
     24  CG        34.0660   21.8760    3.9690 C.2    69  ASN69       0.2629
     25  OD1       34.4230   21.5320    2.8390 O.2    69  ASN69      -0.2716
     26  ND2       34.7230   21.4980    5.0600 N.am   69  ASN69      -0.0877
     27  N         33.5720   21.0600    0.1220 N.3    71  THR71      -0.1218
     28  CA        34.4000   19.9570   -0.3300 C.3    71  THR71       0.1862
     29  C         33.5650   18.7560   -0.7360 C.2    71  THR71       0.2287
     30  O         32.6860   18.3430    0.0170 O.2    71  THR71      -0.2866
     31  CB        35.3550   19.5730    0.8230 C.3    71  THR71       0.1770
     32  OG1       36.2320   20.6670    1.0390 O.3    71  THR71      -0.2211
     33  CG2       36.2120   18.3690    0.4730 C.3    71  THR71       0.0375
     34  N         30.5710   18.6180    1.8020 N.3    86  PHE86      -0.1241
     35  CA        30.6960   18.9570    3.1890 C.3    86  PHE86       0.1605
     36  C         30.2020   20.3790    3.4830 C.2    86  PHE86       0.2264
     37  O         30.3650   21.3330    2.7220 O.2    86  PHE86      -0.2867
     38  CB        32.1360   18.8360    3.7020 C.3    86  PHE86       0.0534
     39  CG        32.4470   17.3820    4.0300 C.ar   86  PHE86      -0.0203
     40  CD1       32.0910   16.8580    5.2610 C.ar   86  PHE86      -0.0042
     41  CD2       33.0760   16.5740    3.0930 C.ar   86  PHE86      -0.0042
     42  CE1       32.3660   15.5300    5.5290 C.ar   86  PHE86      -0.0003
     43  CE2       33.3540   15.2510    3.3770 C.ar   86  PHE86      -0.0003
     44  CZ        32.9970   14.7240    4.6040 C.ar   86  PHE86      -0.0000
     45  N         29.5060   22.7310    7.4920 N.3    88  GLN88      -0.1245
     46  CA        29.7290   22.7340    8.9280 C.3    88  GLN88       0.1566
     47  C         28.5830   23.4210    9.6650 C.2    88  GLN88       0.2260
     48  O         28.1190   24.4960    9.2930 O.2    88  GLN88      -0.2867
     49  CB        31.0660   23.4040    9.2380 C.3    88  GLN88       0.0367
     50  CG        31.5410   23.2430   10.6680 C.3    88  GLN88       0.0905
     51  CD        32.5880   24.2780   11.0410 C.2    88  GLN88       0.2608
     52  OE1       32.2580   25.3910   11.4240 O.2    88  GLN88      -0.2717
     53  NE2       33.8550   23.9170   10.9520 N.am   88  GLN88      -0.0878
     54  N         31.4090   18.8740   11.0130 N.3   102  ASP102     -0.1239
     55  CA        31.3340   18.6910    9.5660 C.3   102  ASP102      0.1674
     56  C         30.4180   17.5300    9.2120 C.2   102  ASP102      0.2266
     57  O         30.4380   16.4990    9.8830 O.2   102  ASP102     -0.2867
     58  CB        32.7130   18.4110    8.9740 C.3   102  ASP102      0.1410
     59  CG        33.6860   19.5740    9.0140 C.2   102  ASP102      0.3668
     60  OD1       33.2290   20.7180    9.2370 O.co2 102  ASP102     -0.2456
     61  OD2       34.8970   19.3130    8.8100 O.co2 102  ASP102     -0.2456
     62  N         37.5770    7.7240   12.8120 N.3   128  GLN128     -0.1231
     63  CA        37.6920    8.7830   11.8140 C.3   128  GLN128      0.1698
     64  C         38.2870    8.3100   10.5010 C.2   128  GLN128      0.2593
     65  O         39.2710    7.5740   10.5190 O.2   128  GLN128     -0.2718
     66  CB        38.5570    9.9030   12.4190 C.3   128  GLN128      0.0381
     67  CG        38.8970   10.9800   11.4250 C.3   128  GLN128      0.0905
     68  CD        39.3360   12.2950   12.0400 C.2   128  GLN128      0.2608
     69  OE1       39.1090   12.6120   13.2060 O.2   128  GLN128     -0.2717
     70  NE2       39.9450   13.0370   11.1200 N.am  128  GLN128     -0.0878
     71  N         37.7030    8.7140    9.3870 N.am  129  THR129     -0.1939
     72  CA        38.2910    8.5360    8.0710 C.3   129  THR129      0.2028
     73  C         38.6240    9.9130    7.4880 C.2   129  THR129      0.2642
     74  O         39.7760   10.3450    7.6960 O.2   129  THR129     -0.2714
     75  CB        37.4260    7.6830    7.1360 C.3   129  THR129      0.1808
     76  OG1       36.0610    8.1070    7.0810 O.3   129  THR129     -0.2208
     77  CG2       37.3920    6.2210    7.6470 C.3   129  THR129      0.0379
     78  N         37.7940   10.6690    6.8230 N.am  130  ILE130     -0.1963
     79  CA        38.0130   11.9020    6.1080 C.3   130  ILE130      0.1727
     80  C         37.5390   13.1130    6.8840 C.2   130  ILE130      0.2617
     81  O         37.8910   14.2240    6.5230 O.2   130  ILE130     -0.2715
     82  CB        37.2870   11.8630    4.7440 C.3   130  ILE130      0.0290
     83  CG1       35.7690   11.8090    4.8280 C.3   130  ILE130      0.0022
     84  CG2       37.8060   10.6900    3.9120 C.3   130  ILE130      0.0023
     85  CD1       35.0700   11.5500    3.5150 C.3   130  ILE130      0.0001
     86  N         36.7550   12.9120    7.9340 N.am  131  SER131     -0.1936
     87  CA        36.2170   14.0720    8.6440 C.3   131  SER131      0.2055
     88  C         36.0820   13.7330   10.1210 C.2   131  SER131      0.2642
     89  O         35.9330   12.5620   10.4850 O.2   131  SER131     -0.2714
     90  CB        34.9070   14.4380    7.9650 C.3   131  SER131      0.2130
     91  OG        34.1330   15.3840    8.6400 O.3   131  SER131     -0.2179
     92  N         36.1490   14.7470   10.9880 N.am  132  VAL132     -0.1977
     93  CA        36.1140   14.4490   12.4270 C.3   132  VAL132      0.1596
     94  C         34.6980   14.0380   12.8140 C.2   132  VAL132      0.2287
     95  O         33.7910   14.8730   12.6740 O.2   132  VAL132     -0.2864
     96  CB        36.6080   15.6340   13.2580 C.3   132  VAL132      0.0276
     97  CG1       36.5410   15.3330   14.7500 C.3   132  VAL132      0.0022
     98  CG2       38.0330   15.9950   12.8460 C.3   132  VAL132      0.0022
     99  N         33.9830   12.3110   18.3380 N.3   136  TYR136     -0.1227
    100  CA        35.2770   12.9140   18.6230 C.3   136  TYR136      0.1736
    101  C         35.1230   14.4010   18.9730 C.2   136  TYR136      0.2595
    102  O         35.8070   14.9350   19.8650 O.2   136  TYR136     -0.2718
    103  CB        36.2100   12.7980   17.4500 C.3   136  TYR136      0.0548
    104  CG        36.8110   11.5170   16.9750 C.ar  136  TYR136     -0.0200
    105  CD1       36.0500   10.3590   16.8160 C.ar  136  TYR136     -0.0009
    106  CD2       38.1600   11.4400   16.6470 C.ar  136  TYR136     -0.0009
    107  CE1       36.6130    9.1860   16.3740 C.ar  136  TYR136      0.0417
    108  CE2       38.7300   10.2700   16.1930 C.ar  136  TYR136      0.0417
    109  CZ        37.9490    9.1360   16.0570 C.ar  136  TYR136      0.1957
    110  OH        38.4890    7.9550   15.5970 O.3   136  TYR136     -0.2866
    111  N         34.2270   15.0910   18.2610 N.am  137  ASN137     -0.1974
    112  CA        33.9850   16.4960   18.6000 C.3   137  ASN137      0.1688
    113  C         33.3460   16.6080   19.9790 C.2   137  ASN137      0.2292
    114  O         33.6200   17.5040   20.7770 O.2   137  ASN137     -0.2864
    115  CB        33.1300   17.2070   17.5400 C.3   137  ASN137      0.1181
    116  CG        33.9900   17.5570   16.3320 C.2   137  ASN137      0.2629
    117  OD1       35.1390   17.9650   16.4970 O.2   137  ASN137     -0.2716
    118  ND2       33.4270   17.3410   15.1540 N.am  137  ASN137     -0.0877
    119  N         36.2190   16.1820   22.3380 N.3   140  ASN140     -0.1240
    120  CA        37.0520   17.3710   22.1930 C.3   140  ASN140      0.1653
    121  C         36.4440   18.5580   22.9100 C.2   140  ASN140      0.2266
    122  O         37.1480   19.3610   23.5130 O.2   140  ASN140     -0.2867
    123  CB        37.2490   17.6850   20.7060 C.3   140  ASN140      0.1155
    124  CG        38.3240   18.7250   20.4770 C.2   140  ASN140      0.2627
    125  OD1       38.0460   19.7800   19.8970 O.2   140  ASN140     -0.2716
    126  ND2       39.5600   18.4570   20.8970 N.am  140  ASN140     -0.0877
@<TRIPOS>BOND
     1    29    28    1
     2    29    30    2
     3    28    27    1
     4    28    31    1
     5    33    31    1
     6    31    32    1
     7    17    16   ar
     8    22    21    2
     9    34    35    1
    10    21    20    1
    11    16    15    1
    12    16    18   ar
    13    37    36    2
    14    25    24    2
    15    15    14    1
    16    14    11    1
    17    41    43   ar
    18    41    39   ar
    19    35    36    1
    20    35    38    1
    21    20    19    1
    22    20    23    1
    23    43    44   ar
    24    85    83    1
    25    19    12   am
    26    38    39    1
    27    84    82    1
    28    24    23    1
    29    24    26   am
    30    39    40   ar
    31    11    12    1
    32    11    10    1
    33    12    13    2
    34    44    42   ar
    35    82    83    1
    36    82    79    1
    37    40    42   ar
    38    10     3   am
    39    79    78    1
    40    79    80    1
    41    81    80    2
    42     3     4    2
    43     3     2    1
    44    78    73   am
    45    80    86   am
    46    76    75    1
    47    75    77    1
    48    75    72    1
    49    73    74    2
    50    73    72    1
    51    45    46    1
    52     2     1    1
    53     2     5    1
    54    86    87    1
    55    90    91    1
    56    90    87    1
    57    72    71    1
    58     6     5    1
    59     6     7    1
    60    87    88    1
    61    61    59   ar
    62    46    49    1
    63    46    47    1
    64    58    59    1
    65    58    55    1
    66    59    60   ar
    67    56    55    1
    68    56    57    2
    69    49    50    1
    70    48    47    2
    71     7     8    1
    72     9     8    1
    73    71    64   am
    74    55    54    1
    75    88    89    2
    76    88    92   am
    77    64    65    2
    78    64    63    1
    79    50    51    1
    80    53    51   am
    81    92    93    1
    82    51    52    2
    83    70    68   am
    84    67    68    1
    85    67    66    1
    86    63    66    1
    87    63    62    1
    88    68    69    2
    89    93    94    1
    90    93    96    1
    91    95    94    2
    92    98    96    1
    93    96    97    1
    94   118   116   am
    95   110   109    1
    96   109   108   ar
    97   109   107   ar
    98   108   106   ar
    99   116   117    2
   100   116   115    1
   101   107   105   ar
   102   106   104   ar
   103   105   104   ar
   104   104   103    1
   105   103   100    1
   106   115   112    1
   107   111   112    1
   108   111   101   am
   109    99   100    1
   110   112   113    1
   111   100   101    1
   112   101   102    2
   113   125   124    2
   114   113   114    2
   115   124   123    1
   116   124   126   am
   117   123   120    1
   118   120   119    1
   119   120   121    1
   120   121   122    2
