@<TRIPOS>MOLECULE
tmp/1b5fC00.pdb
 126 120 0 0 0
SMALL
GASTEIGER

@<TRIPOS>ATOM
      1  N         -6.3440    5.9120   23.2220 N.3    66  LYS66      -0.1231
      2  CA        -7.7650    5.5510   23.2740 C.3    66  LYS66       0.1693
      3  C         -8.4950    6.3580   22.2240 C.2    66  LYS66       0.2592
      4  O         -8.4340    7.5830   22.1350 O.2    66  LYS66      -0.2718
      5  CB        -8.3650    5.7500   24.6630 C.3    66  LYS66       0.0285
      6  CG        -9.8140    5.2870   24.7330 C.3    66  LYS66       0.0035
      7  CD       -10.2930    5.3840   26.1750 C.3    66  LYS66       0.0206
      8  CE       -11.6160    6.1270   26.3000 C.3    66  LYS66       0.1093
      9  NZ       -12.5810    5.3560   27.1380 N.3    66  LYS66      -0.1314
     10  N         -9.1900    5.6450   21.3400 N.am   67  GLU67      -0.1966
     11  CA        -9.8120    6.3540   20.2220 C.3    67  GLU67       0.1733
     12  C        -10.9460    7.2550   20.7160 C.2    67  GLU67       0.2616
     13  O        -11.5560    7.0320   21.7640 O.2    67  GLU67      -0.2715
     14  CB       -10.3570    5.4000   19.1590 C.3    67  GLU67       0.0429
     15  CG       -11.8670    5.5270   18.9840 C.3    67  GLU67       0.1163
     16  CD       -12.2680    5.5090   17.5210 C.2    67  GLU67       0.3649
     17  OE1      -11.4990    4.9120   16.7360 O.co2  67  GLU67      -0.2457
     18  OE2      -13.3320    6.0790   17.1990 O.co2  67  GLU67      -0.2457
     19  N        -11.1730    8.2870   19.9180 N.am   68  ASN68      -0.1972
     20  CA       -12.2740    9.2280   20.0760 C.3    68  ASN68       0.1688
     21  C        -12.9000    9.3850   18.6950 C.2    68  ASN68       0.2292
     22  O        -14.0510    8.9920   18.4760 O.2    68  ASN68      -0.2864
     23  CB       -11.7630   10.5320   20.6690 C.3    68  ASN68       0.1181
     24  CG       -12.7600   11.6560   20.7930 C.2    68  ASN68       0.2629
     25  OD1      -13.4540   12.0750   19.8650 O.2    68  ASN68      -0.2716
     26  ND2      -12.8630   12.2330   21.9960 N.am   68  ASN68      -0.0877
     27  N        -13.8770   12.0520   17.1140 N.3    70  THR70      -0.1218
     28  CA       -14.6410   13.2880   16.9130 C.3    70  THR70       0.1862
     29  C        -13.9330   14.2600   15.9860 C.2    70  THR70       0.2287
     30  O        -12.7060   14.4170   16.0480 O.2    70  THR70      -0.2866
     31  CB       -14.8750   13.9100   18.3060 C.3    70  THR70       0.1770
     32  OG1      -15.7370   13.0300   19.0610 O.3    70  THR70      -0.2211
     33  CG2      -15.5790   15.2540   18.2370 C.3    70  THR70       0.0375
     34  N        -10.1810   14.1530   16.9620 N.3    85  PHE85      -0.1241
     35  CA        -9.6890   14.0230   18.3300 C.3    85  PHE85       0.1605
     36  C         -9.2410   12.6060   18.6260 C.2    85  PHE85       0.2264
     37  O         -9.8160   11.6160   18.1620 O.2    85  PHE85      -0.2867
     38  CB       -10.7730   14.4650   19.3140 C.3    85  PHE85       0.0534
     39  CG       -10.8090   15.9820   19.4570 C.ar   85  PHE85      -0.0203
     40  CD1       -9.9940   16.6160   20.3860 C.ar   85  PHE85      -0.0042
     41  CD2      -11.6420   16.7550   18.6750 C.ar   85  PHE85      -0.0042
     42  CE1      -10.0350   17.9940   20.5000 C.ar   85  PHE85      -0.0003
     43  CE2      -11.6790   18.1330   18.7810 C.ar   85  PHE85      -0.0003
     44  CZ       -10.8620   18.7600   19.7010 C.ar   85  PHE85      -0.0000
     45  N         -7.1420   10.4770   22.2000 N.3    87  GLN87      -0.1245
     46  CA        -6.7280   10.5170   23.5890 C.3    87  GLN87       0.1566
     47  C         -5.4830    9.6650   23.8000 C.2    87  GLN87       0.2260
     48  O         -5.3540    8.5420   23.2900 O.2    87  GLN87      -0.2867
     49  CB        -7.8720   10.0420   24.4770 C.3    87  GLN87       0.0367
     50  CG        -7.7320   10.3850   25.9470 C.3    87  GLN87       0.0905
     51  CD        -8.8880    9.7900   26.7480 C.2    87  GLN87       0.2608
     52  OE1       -8.8680    8.5890   27.0250 O.2    87  GLN87      -0.2717
     53  NE2       -9.8840   10.5880   27.1190 N.am   87  GLN87      -0.0878
     54  N         -6.9040   14.8090   25.5920 N.3   101  ASP101     -0.1239
     55  CA        -7.4570   14.8280   24.2540 C.3   101  ASP101      0.1674
     56  C         -6.6590   15.7880   23.3750 C.2   101  ASP101      0.2266
     57  O         -6.2580   16.8530   23.8350 O.2   101  ASP101     -0.2867
     58  CB        -8.9150   15.2970   24.1860 C.3   101  ASP101      0.1410
     59  CG        -9.9140   14.3430   24.8010 C.2   101  ASP101      0.3668
     60  OD1       -9.5620   13.2000   25.1640 O.co2 101  ASP101     -0.2456
     61  OD2      -11.0960   14.7370   24.9420 O.co2 101  ASP101     -0.2456
     62  N        -10.2120   27.0430   28.4490 N.3   127  GLN127     -0.1231
     63  CA       -10.8330   25.9360   27.7320 C.3   127  GLN127      0.1698
     64  C        -11.9250   26.4180   26.7930 C.2   127  GLN127      0.2593
     65  O        -12.7060   27.2910   27.1550 O.2   127  GLN127     -0.2718
     66  CB       -11.4180   24.9460   28.7520 C.3   127  GLN127      0.0381
     67  CG       -12.1930   23.8330   28.0720 C.3   127  GLN127      0.0905
     68  CD       -12.6780   22.8070   29.0880 C.2   127  GLN127      0.2608
     69  OE1      -12.0250   22.4970   30.0830 O.2   127  GLN127     -0.2717
     70  NE2      -13.8680   22.3250   28.7550 N.am  127  GLN127     -0.0878
     71  N        -11.9490   25.8220   25.6130 N.am  128  THR128     -0.1939
     72  CA       -13.0380   26.0320   24.6710 C.3   128  THR128      0.2028
     73  C        -13.7150   24.6760   24.4210 C.2   128  THR128      0.2642
     74  O        -14.6820   24.3530   25.0940 O.2   128  THR128     -0.2714
     75  CB       -12.5780   26.6450   23.3450 C.3   128  THR128      0.1808
     76  OG1      -11.4500   25.9210   22.8390 O.3   128  THR128     -0.2208
     77  CG2      -12.1350   28.0910   23.5360 C.3   128  THR128      0.0379
     78  N        -13.2080   23.8810   23.4970 N.am  129  ILE129     -0.1963
     79  CA       -13.8570   22.6500   23.0720 C.3   129  ILE129      0.1727
     80  C        -13.3620   21.4020   23.7870 C.2   129  ILE129      0.2617
     81  O        -14.0620   20.4020   23.8660 O.2   129  ILE129     -0.2715
     82  CB       -13.6740   22.4270   21.5510 C.3   129  ILE129      0.0290
     83  CG1      -12.3070   22.6990   20.9560 C.3   129  ILE129      0.0022
     84  CG2      -14.7100   23.2560   20.7860 C.3   129  ILE129      0.0023
     85  CD1      -11.1320   21.8800   21.4190 C.3   129  ILE129      0.0001
     86  N        -12.1340   21.4120   24.2850 N.am  130  SER130     -0.1936
     87  CA       -11.5280   20.2100   24.8470 C.3   130  SER130      0.2055
     88  C        -10.8200   20.5570   26.1470 C.2   130  SER130      0.2642
     89  O        -10.4440   21.7280   26.2900 O.2   130  SER130     -0.2714
     90  CB       -10.5510   19.6460   23.8150 C.3   130  SER130      0.2130
     91  OG       -10.1060   18.3500   24.1730 O.3   130  SER130     -0.2179
     92  N        -10.6190   19.6360   27.0850 N.am  131  VAL131     -0.1977
     93  CA        -9.9510   20.0520   28.3140 C.3   131  VAL131      0.1596
     94  C         -8.4730   20.2630   27.9960 C.2   131  VAL131      0.2287
     95  O         -7.8270   19.2950   27.5810 O.2   131  VAL131     -0.2864
     96  CB       -10.1070   19.0510   29.4600 C.3   131  VAL131      0.0276
     97  CG1       -9.4000   19.5610   30.7000 C.3   131  VAL131      0.0022
     98  CG2      -11.5820   18.8240   29.7740 C.3   131  VAL131      0.0022
     99  N         -5.3600   22.0650   32.3420 N.3   135  TYR135     -0.1227
    100  CA        -6.4870   21.7730   33.2420 C.3   135  TYR135      0.1736
    101  C         -6.3850   20.3350   33.7500 C.2   135  TYR135      0.2595
    102  O         -6.6560   19.9990   34.9030 O.2   135  TYR135     -0.2718
    103  CB        -7.8090   21.9730   32.5390 C.3   135  TYR135      0.0548
    104  CG        -8.3130   23.3460   32.2210 C.ar  135  TYR135     -0.0200
    105  CD1       -7.5150   24.3460   31.6750 C.ar  135  TYR135     -0.0009
    106  CD2       -9.6580   23.6450   32.4680 C.ar  135  TYR135     -0.0009
    107  CE1       -8.0350   25.5950   31.3950 C.ar  135  TYR135      0.0417
    108  CE2      -10.1860   24.8890   32.1930 C.ar  135  TYR135      0.0417
    109  CZ        -9.3620   25.8610   31.6570 C.ar  135  TYR135      0.1957
    110  OH        -9.8930   27.0830   31.3860 O.3   135  TYR135     -0.2866
    111  N         -5.9700   19.4670   32.8290 N.am  136  ASN136     -0.1974
    112  CA        -5.7500   18.0670   33.2020 C.3   136  ASN136      0.1688
    113  C         -4.6310   17.9600   34.2180 C.2   136  ASN136      0.2292
    114  O         -4.6510   17.0890   35.0970 O.2   136  ASN136     -0.2864
    115  CB        -5.4660   17.2090   31.9600 C.3   136  ASN136      0.1181
    116  CG        -6.7710   16.7660   31.3120 C.2   136  ASN136      0.2629
    117  OD1       -7.7130   16.4130   32.0350 O.2   136  ASN136     -0.2716
    118  ND2       -6.8590   16.8000   29.9920 N.am  136  ASN136     -0.0877
    119  N         -6.3650   18.9390   37.3880 N.3   139  ASN139     -0.1240
    120  CA        -7.3570   17.9280   37.7970 C.3   139  ASN139      0.1653
    121  C         -6.6560   16.6880   38.3490 C.2   139  ASN139      0.2266
    122  O         -7.0930   16.1530   39.3750 O.2   139  ASN139     -0.2867
    123  CB        -8.2760   17.5990   36.6260 C.3   139  ASN139      0.1155
    124  CG        -9.2690   16.4940   36.9320 C.2   139  ASN139      0.2627
    125  OD1       -9.1130   15.3610   36.4630 O.2   139  ASN139     -0.2716
    126  ND2      -10.2790   16.8420   37.7260 N.am  139  ASN139     -0.0877
@<TRIPOS>BOND
     1    29    30    2
     2    29    28    1
     3    17    16   ar
     4    28    27    1
     5    28    31    1
     6    34    35    1
     7    18    16   ar
     8    16    15    1
     9    37    36    2
    10    33    31    1
    11    31    32    1
    12    35    36    1
    13    35    38    1
    14    22    21    2
    15    41    43   ar
    16    41    39   ar
    17    21    20    1
    18    43    44   ar
    19    15    14    1
    20    14    11    1
    21    38    39    1
    22    39    40   ar
    23    44    42   ar
    24    25    24    2
    25    19    20    1
    26    19    12   am
    27    20    23    1
    28    11    12    1
    29    11    10    1
    30    40    42   ar
    31    23    24    1
    32    12    13    2
    33    84    82    1
    34    24    26   am
    35    83    85    1
    36    83    82    1
    37    10     3   am
    38    82    79    1
    39     4     3    2
    40    45    46    1
    41     3     2    1
    42    76    75    1
    43    79    78    1
    44    79    80    1
    45     1     2    1
    46     2     5    1
    47    48    47    2
    48    75    77    1
    49    75    72    1
    50    56    57    2
    51    56    55    1
    52    78    73   am
    53    46    47    1
    54    46    49    1
    55    80    81    2
    56    80    86   am
    57    90    91    1
    58    90    87    1
    59    58    55    1
    60    58    59    1
    61    55    54    1
    62    86    87    1
    63    73    72    1
    64    73    74    2
    65    49    50    1
    66     5     6    1
    67    72    71    1
    68     6     7    1
    69    59    61   ar
    70    59    60   ar
    71    87    88    1
    72    71    64   am
    73    50    51    1
    74    88    89    2
    75    88    92   am
    76     7     8    1
    77     8     9    1
    78    51    52    2
    79    51    53   am
    80    64    65    2
    81    64    63    1
    82    92    93    1
    83    95    94    2
    84    63    62    1
    85    63    66    1
    86    94    93    1
    87    67    66    1
    88    67    68    1
    89    93    96    1
    90    70    68   am
    91    68    69    2
    92    96    98    1
    93    96    97    1
    94   118   116   am
    95   116   115    1
    96   116   117    2
    97   110   109    1
    98   107   109   ar
    99   107   105   ar
   100   109   108   ar
   101   105   104   ar
   102   115   112    1
   103   108   106   ar
   104   104   106   ar
   105   104   103    1
   106    99   100    1
   107   103   100    1
   108   111   112    1
   109   111   101   am
   110   112   113    1
   111   100   101    1
   112   101   102    2
   113   113   114    2
   114   125   124    2
   115   123   124    1
   116   123   120    1
   117   124   126   am
   118   119   120    1
   119   120   121    1
   120   121   122    2
