@<TRIPOS>MOLECULE
tmp/1b5gB01.pdb
 230 229 0 0 0
SMALL
GASTEIGER

@<TRIPOS>ATOM
      1  N         14.2730   -7.7730    9.2710 N.3    27  LEU27      -0.1231
      2  CA        15.3610   -8.1910   10.1600 C.3    27  LEU27       0.1693
      3  C         15.0250   -7.9520   11.6420 C.2    27  LEU27       0.2592
      4  O         15.0490   -8.8840   12.4370 O.2    27  LEU27      -0.2718
      5  CB        16.5880   -7.4170    9.7170 C.3    27  LEU27       0.0284
      6  CG        17.8860   -8.1570    9.5870 C.3    27  LEU27       0.0019
      7  CD1       17.7360   -9.3290    8.5820 C.3    27  LEU27       0.0001
      8  CD2       18.9270   -7.1430    9.0960 C.3    27  LEU27       0.0001
      9  N         14.6410   -6.7300   11.9630 N.am   28  CYS28      -0.1970
     10  CA        14.3780   -6.2690   13.3340 C.3    28  CYS28       0.1712
     11  C         13.6250   -4.9340   13.3160 C.2    28  CYS28       0.2296
     12  O         13.4910   -4.2480   12.2800 O.2    28  CYS28      -0.2864
     13  CB        15.7600   -5.9770   13.9360 C.3    28  CYS28       0.0983
     14  SG        16.7160   -7.3510   14.6920 S.3    28  CYS28      -0.0798
     15  N         22.5200   -6.9140   18.5700 N.3    43  HIS43      -0.1226
     16  CA        22.3820   -8.3160   18.2090 C.3    43  HIS43       0.1752
     17  C         21.6150   -8.5200   16.9020 C.2    43  HIS43       0.2592
     18  O         21.5050   -9.6390   16.3620 O.2    43  HIS43      -0.2718
     19  CB        21.7710   -9.1590   19.3560 C.3    43  HIS43       0.0759
     20  CG        20.2680   -9.1570   19.3240 C.ar   43  HIS43       0.0818
     21  ND1       19.5150   -8.5010   20.2630 N.ar   43  HIS43      -0.2268
     22  CD2       19.4010   -9.6880   18.4400 C.ar   43  HIS43       0.1154
     23  CE1       18.2450   -8.7330   20.0450 C.ar   43  HIS43       0.1986
     24  NE2       18.1390   -9.4520   18.9400 N.ar   43  HIS43      -0.2212
     25  N         21.0270   -7.4170   16.4410 N.am   44  CYS44      -0.2023
     26  CA        20.3470   -7.3470   15.1430 C.3    44  CYS44       0.1398
     27  C         21.4080   -7.1910   14.0340 C.3    44  CYS44       0.2045
     28  O         21.0760   -7.6730   12.9320 O.3    44  CYS44      -0.2185
     29  CB        19.4460   -6.0990   15.0880 C.3    44  CYS44       0.0930
     30  SG        17.9110   -6.3970   15.8920 S.3    44  CYS44      -0.0802
     31  N         25.6990  -11.1120   15.6790 N.3    47  TYR47      -0.1241
     32  CA        25.3650  -12.2560   16.5350 C.3    47  TYR47       0.1605
     33  C         26.1450  -13.4710   15.9880 C.2    47  TYR47       0.2264
     34  O         25.5680  -14.2580   15.1850 O.2    47  TYR47      -0.2867
     35  CB        23.8410  -12.5330   16.5090 C.3    47  TYR47       0.0534
     36  CG        23.5180  -13.4470   17.6770 C.ar   47  TYR47      -0.0201
     37  CD1       24.0420  -13.0310   18.9220 C.ar   47  TYR47      -0.0009
     38  CD2       22.9160  -14.6730   17.5490 C.ar   47  TYR47      -0.0009
     39  CE1       23.8530  -13.8110   20.0550 C.ar   47  TYR47       0.0417
     40  CE2       22.7140  -15.4710   18.6810 C.ar   47  TYR47       0.0417
     41  CZ        23.1760  -15.0060   19.9220 C.ar   47  TYR47       0.1957
     42  OH        23.0050  -15.8110   21.0260 O.3    47  TYR47      -0.2866
     43  N         25.2580  -17.2160   15.3250 N.3    50  TRP50      -0.1241
     44  CA        24.2730  -17.5890   14.2810 C.3    50  TRP50       0.1605
     45  C         24.7780  -17.1060   12.9190 C.2    50  TRP50       0.2264
     46  O         23.9480  -17.0520   12.0010 O.2    50  TRP50      -0.2867
     47  CB        22.9040  -17.0120   14.4900 C.3    50  TRP50       0.0550
     48  CG        22.1190  -17.5900   15.6070 C.ar   50  TRP50       0.0003
     49  CD1       22.3400  -18.7120   16.3560 C.ar   50  TRP50       0.0946
     50  CD2       20.8810  -17.0170   16.0830 C.ar   50  TRP50       0.0152
     51  NE1       21.3230  -18.8830   17.2660 N.ar   50  TRP50      -0.2442
     52  CE2       20.4050  -17.8720   17.1040 C.ar   50  TRP50       0.0810
     53  CE3       20.1670  -15.8750   15.7170 C.ar   50  TRP50       0.0012
     54  CZ2       19.2170  -17.6020   17.7800 C.ar   50  TRP50       0.0191
     55  CZ3       18.9920  -15.6150   16.3850 C.ar   50  TRP50       0.0001
     56  CH2       18.5260  -16.4430   17.4090 C.ar   50  TRP50       0.0015
     57  N         25.5410  -14.1170   12.1210 N.3    52  LYS52      -0.1245
     58  CA        24.9040  -12.8230   11.6980 C.3    52  LYS52       0.1561
     59  C         25.9440  -11.7170   11.7460 C.2    52  LYS52       0.2260
     60  O         26.6210  -11.5420   12.7930 O.2    52  LYS52      -0.2867
     61  CB        23.7270  -12.4670   12.5700 C.3    52  LYS52       0.0271
     62  CG        22.3770  -12.6340   11.8530 C.3    52  LYS52       0.0035
     63  CD        22.1860  -14.1180   11.5000 C.3    52  LYS52       0.0206
     64  CE        20.7330  -14.3760   11.1230 C.3    52  LYS52       0.1093
     65  NZ        20.5500  -15.8070   10.7790 N.3    52  LYS52      -0.1314
     66  N         25.8620   -8.1860    9.6510 N.3    54  PHE54      -0.1241
     67  CA        25.5230   -7.1360    8.7300 C.3    54  PHE54       0.1605
     68  C         26.4200   -5.9270    8.7660 C.2    54  PHE54       0.2264
     69  O         27.0000   -5.5050    9.7520 O.2    54  PHE54      -0.2867
     70  CB        24.0470   -6.7690    8.8480 C.3    54  PHE54       0.0534
     71  CG        23.1980   -7.9940    8.6630 C.ar   54  PHE54      -0.0203
     72  CD1       23.0820   -8.5350    7.4030 C.ar   54  PHE54      -0.0042
     73  CD2       22.5290   -8.5560    9.7370 C.ar   54  PHE54      -0.0042
     74  CE1       22.2540   -9.6310    7.1820 C.ar   54  PHE54      -0.0003
     75  CE2       21.6910   -9.6740    9.5460 C.ar   54  PHE54      -0.0003
     76  CZ        21.6160  -10.2240    8.2550 C.ar   54  PHE54      -0.0000
     77  N         23.9240  -10.7780   26.1920 N.3    96  LEU96      -0.1245
     78  CA        23.5070   -9.6530   25.3770 C.3    96  LEU96       0.1561
     79  C         23.5780   -8.3360   26.1560 C.2    96  LEU96       0.2260
     80  O         22.7110   -7.4960   25.9330 O.2    96  LEU96      -0.2867
     81  CB        22.1240   -9.8440   24.7740 C.3    96  LEU96       0.0270
     82  CG        21.8490  -11.0620   23.9120 C.3    96  LEU96       0.0019
     83  CD1       20.6830  -10.8800   22.9400 C.3    96  LEU96       0.0001
     84  CD2       23.1630  -11.3520   23.1620 C.3    96  LEU96       0.0001
     85  N         20.1260  -16.9840   33.3340 N.3   171  ILE171     -0.1245
     86  CA        21.0820  -16.0440   32.7150 C.3   171  ILE171      0.1561
     87  C         21.3860  -14.8760   33.6350 C.2   171  ILE171      0.2260
     88  O         20.4870  -14.4160   34.3290 O.2   171  ILE171     -0.2867
     89  CB        20.4560  -15.5180   31.3590 C.3   171  ILE171      0.0252
     90  CG1       20.2970  -16.7660   30.4200 C.3   171  ILE171      0.0019
     91  CG2       21.2560  -14.3790   30.7270 C.3   171  ILE171      0.0019
     92  CD1       19.5070  -16.4350   29.1150 C.3   171  ILE171      0.0001
     93  N          3.8470   -9.8230   25.4130 N.3   191  ASP191     -0.1225
     94  CA         5.3060   -9.8520   25.2930 C.3   191  ASP191      0.1805
     95  C          5.6020   -9.4640   23.8160 C.2   191  ASP191      0.2598
     96  O          4.6740   -9.4100   22.9690 O.2   191  ASP191     -0.2718
     97  CB         5.7380  -11.3160   25.5460 C.3   191  ASP191      0.1424
     98  CG         7.1640  -11.5170   25.9630 C.2   191  ASP191      0.3668
     99  OD1        7.8450  -10.5080   26.1870 O.co2 191  ASP191     -0.2456
    100  OD2        7.6200  -12.6810   26.1490 O.co2 191  ASP191     -0.2456
    101  N          6.8380   -9.1680   23.6230 N.am  192  ALA192     -0.1966
    102  CA         7.5200   -8.9780   22.3520 C.3   192  ALA192      0.1728
    103  C          7.8050  -10.4560   21.9270 C.2   192  ALA192      0.2616
    104  O          7.6040  -11.3880   22.7580 O.2   192  ALA192     -0.2715
    105  CB         8.8410   -8.2690   22.5860 C.3   192  ALA192      0.0334
    106  N          8.2960  -10.6780   20.7570 N.am  193  CYS193     -0.1954
    107  CA         8.6140  -12.0380   20.2660 C.3   193  CYS193      0.1843
    108  C          9.6530  -11.8640   19.1590 C.2   193  CYS193      0.2625
    109  O         10.0770  -10.7260   18.8290 O.2   193  CYS193     -0.2714
    110  CB         7.3310  -12.7780   19.9330 C.3   193  CYS193      0.0997
    111  SG         7.4170  -14.5850   19.8470 S.3   193  CYS193     -0.0797
    112  N         10.1470  -12.9570   18.6200 N.am  194  GLU194     -0.1963
    113  CA        11.1180  -12.9870   17.5510 C.3   194  GLU194      0.1733
    114  C         10.6230  -12.0300   16.4570 C.2   194  GLU194      0.2616
    115  O          9.4610  -12.2050   16.1230 O.2   194  GLU194     -0.2715
    116  CB        11.1290  -14.3460   16.8370 C.3   194  GLU194      0.0429
    117  CG        10.9900  -15.5700   17.7710 C.3   194  GLU194      0.1163
    118  CD        12.2760  -15.7470   18.5550 C.2   194  GLU194      0.3649
    119  OE1       13.3600  -15.6350   17.9590 O.co2 194  GLU194     -0.2457
    120  OE2       12.0790  -15.9540   19.7870 O.co2 194  GLU194     -0.2457
    121  N         11.5040  -11.2280   15.9650 N.am  195  GLY195     -0.1955
    122  CA        11.3090  -10.2150   14.9740 C.3   195  GLY195      0.1869
    123  C         11.0390   -8.8220   15.5110 C.2   195  GLY195      0.2309
    124  O         11.0610   -7.8570   14.7300 O.2   195  GLY195     -0.2863
    125  N         12.8020   -7.6760   18.0110 N.3   197  SER197     -0.1217
    126  CA        14.1400   -7.2490   18.3670 C.3   197  SER197      0.1889
    127  C         14.4420   -5.8850   17.7570 C.2   197  SER197      0.2288
    128  O         14.0590   -5.6280   16.6470 O.2   197  SER197     -0.2866
    129  CB        15.2160   -8.1990   17.9030 C.3   197  SER197      0.2089
    130  OG        15.4100   -9.2070   18.8920 O.3   197  SER197     -0.2183
    131  N         13.8850   -3.7500   22.7380 N.3   217  VAL217     -0.1231
    132  CA        13.6410   -5.1940   22.7390 C.3   217  VAL217      0.1692
    133  C         14.9850   -5.8900   22.4910 C.2   217  VAL217      0.2593
    134  O         15.7610   -5.7330   21.4890 O.2   217  VAL217     -0.2718
    135  CB        12.5160   -5.5300   21.7610 C.3   217  VAL217      0.0266
    136  CG1       12.2070   -7.0390   21.7920 C.3   217  VAL217      0.0020
    137  CG2       11.2330   -4.7920   21.8300 C.3   217  VAL217      0.0020
    138  N         15.3920   -6.6780   23.4700 N.am  218  SER218     -0.1938
    139  CA        16.6240   -7.4300   23.4670 C.3   218  SER218      0.2055
    140  C         16.4890   -8.9220   23.3640 C.2   218  SER218      0.2643
    141  O         16.9570   -9.5420   22.3490 O.2   218  SER218     -0.2714
    142  CB        17.5130   -7.0260   24.6660 C.3   218  SER218      0.2130
    143  OG        18.8190   -7.5410   24.5750 O.3   218  SER218     -0.2179
    144  N         15.9370   -9.5650   24.3760 N.am  219  TRP219     -0.1959
    145  CA        15.8370  -11.0350   24.4860 C.3   219  TRP219      0.1771
    146  C         14.8130  -11.5580   25.4320 C.2   219  TRP219      0.2620
    147  O         14.2830  -10.8860   26.3140 O.2   219  TRP219     -0.2715
    148  CB        17.2200  -11.6020   24.9180 C.3   219  TRP219      0.0590
    149  CG        17.7260  -11.2300   26.2610 C.ar  219  TRP219      0.0006
    150  CD1       18.4690  -10.1300   26.6190 C.ar  219  TRP219      0.0946
    151  CD2       17.6390  -12.0020   27.4800 C.ar  219  TRP219      0.0152
    152  NE1       18.8850  -10.1830   27.9080 N.ar  219  TRP219     -0.2442
    153  CE2       18.4150  -11.3390   28.4570 C.ar  219  TRP219      0.0810
    154  CE3       17.0660  -13.2400   27.7800 C.ar  219  TRP219      0.0012
    155  CZ2       18.5280  -11.8480   29.7380 C.ar  219  TRP219      0.0191
    156  CZ3       17.1370  -13.7330   29.0450 C.ar  219  TRP219      0.0001
    157  CH2       17.8880  -13.0370   30.0290 C.ar  219  TRP219      0.0015
    158  N         14.4750  -12.8430   25.2510 N.am  220  GLY220     -0.1940
    159  CA        13.5160  -13.4780   26.1930 C.3   220  GLY220      0.2014
    160  C         13.7260  -14.9800   26.0250 C.2   220  GLY220      0.2639
    161  O         14.5730  -15.3970   25.2360 O.2   220  GLY220     -0.2714
    162  N         12.9080  -15.7560   26.6290 N.am  221  GLU221     -0.1963
    163  CA        12.9680  -17.2400   26.5190 C.3   221  GLU221      0.1733
    164  C         11.5710  -17.6370   26.1740 C.2   221  GLU221      0.2617
    165  O         10.6520  -17.5810   27.0210 O.2   221  GLU221     -0.2715
    166  CB        13.5750  -17.8080   27.8040 C.3   221  GLU221      0.0429
    167  CG        14.9990  -17.3110   28.1070 C.3   221  GLU221      0.1163
    168  CD        15.5630  -17.6920   29.4350 C.2   221  GLU221      0.3649
    169  OE1       14.9510  -17.2090   30.4060 O.co2 221  GLU221     -0.2457
    170  OE2       16.5210  -18.4230   29.5950 O.co2 221  GLU221     -0.2457
    171  N         11.3920  -17.9440   24.9090 N.am  222  GLY222     -0.1940
    172  CA         9.9720  -18.2210   24.4340 C.3   222  GLY222      0.2014
    173  C          9.3740  -16.7810   24.3870 C.2   222  GLY222      0.2639
    174  O         10.1170  -15.7590   24.4800 O.2   222  GLY222     -0.2714
    175  N          8.0920  -16.7360   24.2410 N.am  223  CYS223     -0.1967
    176  CA         7.3360  -15.4810   24.1640 C.3   223  CYS223      0.1712
    177  C          6.0820  -15.6660   25.0210 C.2   223  CYS223      0.2296
    178  O          5.3620  -16.6780   24.8040 O.2   223  CYS223     -0.2864
    179  CB         6.8930  -15.1560   22.7390 C.3   223  CYS223      0.0983
    180  SG         8.2450  -15.2140   21.5800 S.3   223  CYS223     -0.0798
    181  N          5.5540  -16.6530   27.9240 N.3   225  ARG225     -0.1245
    182  CA         5.4480  -17.8450   28.8050 C.3   225  ARG225      0.1563
    183  C          5.1670  -17.3380   30.2210 C.2   225  ARG225      0.2260
    184  O          5.7520  -16.3090   30.6410 O.2   225  ARG225     -0.2867
    185  CB         6.6830  -18.6940   28.8540 C.3   225  ARG225      0.0307
    186  CG         7.4700  -18.9470   27.5900 C.3   225  ARG225      0.0489
    187  CD         7.2750  -20.3760   27.1970 C.3   225  ARG225      0.2205
    188  NE         8.2750  -20.8340   26.2340 N.pl3 225  ARG225     -0.0865
    189  CZ         9.5100  -21.1680   26.6080 C.cat 225  ARG225      0.5346
    190  NH1        9.7920  -20.8890   27.9030 N.pl3 225  ARG225      0.1354
    191  NH2       10.4550  -21.6410   25.8270 N.pl3 225  ARG225      0.1354
    192  N          9.7390  -13.1980   31.4890 N.3   229  TYR229     -0.1227
    193  CA         9.6980  -11.8030   31.1450 C.3   229  TYR229      0.1736
    194  C         10.5950  -11.4530   29.9570 C.2   229  TYR229      0.2596
    195  O         11.6060  -12.0790   29.6180 O.2   229  TYR229     -0.2718
    196  CB        10.0850  -10.9250   32.4130 C.3   229  TYR229      0.0548
    197  CG         9.2490  -11.3480   33.6240 C.ar  229  TYR229     -0.0200
    198  CD1        9.6780  -12.3670   34.4820 C.ar  229  TYR229     -0.0009
    199  CD2        8.0390  -10.7650   33.8740 C.ar  229  TYR229     -0.0009
    200  CE1        8.9330  -12.7680   35.5640 C.ar  229  TYR229      0.0417
    201  CE2        7.2220  -11.1590   34.9330 C.ar  229  TYR229      0.0417
    202  CZ         7.6920  -12.1850   35.7840 C.ar  229  TYR229      0.1957
    203  OH         6.8270  -12.5770   36.7770 O.3   229  TYR229     -0.2866
    204  N         10.2150  -10.3680   29.3200 N.am  230  GLY230     -0.1942
    205  CA        11.0050   -9.8200   28.2140 C.3   230  GLY230      0.2014
    206  C         12.0430   -8.9250   28.9230 C.2   230  GLY230      0.2639
    207  O         11.7620   -8.2560   29.8930 O.2   230  GLY230     -0.2714
    208  N         13.2240   -8.9320   28.3350 N.am  231  PHE231     -0.1959
    209  CA        14.3830   -8.1520   28.6790 C.3   231  PHE231      0.1771
    210  C         14.6630   -7.1520   27.5480 C.2   231  PHE231      0.2619
    211  O         14.6370   -7.4960   26.3440 O.2   231  PHE231     -0.2715
    212  CB        15.6340   -8.9660   28.9500 C.3   231  PHE231      0.0574
    213  CG        15.4600   -9.7600   30.2260 C.ar  231  PHE231     -0.0200
    214  CD1       14.6890  -10.9170   30.1430 C.ar  231  PHE231     -0.0042
    215  CD2       16.0410   -9.3130   31.3850 C.ar  231  PHE231     -0.0042
    216  CE1       14.4720  -11.6820   31.3040 C.ar  231  PHE231     -0.0003
    217  CE2       15.8140  -10.0490   32.5750 C.ar  231  PHE231     -0.0003
    218  CZ        15.0700  -11.2350   32.4910 C.ar  231  PHE231     -0.0000
    219  N         14.9310   -5.9730   28.0630 N.am  232  TYR232     -0.1974
    220  CA        15.2210   -4.7530   27.3080 C.3   232  TYR232      0.1639
    221  C         16.5650   -4.1730   27.6070 C.2   232  TYR232      0.2290
    222  O         16.9780   -4.1430   28.7580 O.2   232  TYR232     -0.2864
    223  CB        14.1000   -3.7580   27.8080 C.3   232  TYR232      0.0560
    224  CG        12.7520   -4.3500   27.4720 C.ar  232  TYR232     -0.0198
    225  CD1       12.2000   -4.0960   26.2020 C.ar  232  TYR232     -0.0009
    226  CD2       12.0260   -5.2290   28.2840 C.ar  232  TYR232     -0.0009
    227  CE1       10.9990   -4.6290   25.8410 C.ar  232  TYR232      0.0417
    228  CE2       10.8560   -5.8290   27.8990 C.ar  232  TYR232      0.0417
    229  CZ        10.3390   -5.5380   26.6470 C.ar  232  TYR232      0.1957
    230  OH         9.1630   -6.0340   26.1470 O.3   232  TYR232     -0.2866
@<TRIPOS>BOND
     1    74    72   ar
     2    74    76   ar
     3    72    71   ar
     4    76    75   ar
     5     7     6    1
     6    71    70    1
     7    71    73   ar
     8    67    68    1
     9    67    70    1
    10    67    66    1
    11    68    69    2
    12     8     6    1
    13     1     2    1
    14    75    73   ar
    15     6     5    1
    16     5     2    1
    17     2     3    1
    18    65    64    1
    19    64    63    1
    20    63    62    1
    21     3     9   am
    22     3     4    2
    23    58    59    1
    24    58    57    1
    25    58    61    1
    26    59    60    2
    27    62    61    1
    28     9    10    1
    29    46    45    2
    30    12    11    2
    31    45    44    1
    32    28    27    1
    33    11    10    1
    34    10    13    1
    35    13    14    1
    36    27    26    1
    37    44    47    1
    38    44    43    1
    39    47    48    1
    40    14    30    1
    41   124   123    2
    42   122   123    1
    43   122   121    1
    44    29    26    1
    45    29    30    1
    46    26    25    1
    47    34    33    2
    48    48    50   ar
    49    48    49   ar
    50    31    32    1
    51    53    50   ar
    52    53    55   ar
    53   121   114   am
    54    33    32    1
    55    50    52   ar
    56   115   114    2
    57    49    51   ar
    58    18    17    2
    59    55    56   ar
    60    25    17   am
    61   114   113    1
    62    35    32    1
    63    35    36    1
    64   128   127    2
    65   116   113    1
    66   116   117    1
    67    17    16    1
    68    52    51   ar
    69    52    54   ar
    70    56    54   ar
    71    38    36   ar
    72    38    40   ar
    73   113   112    1
    74    36    37   ar
    75   127   126    1
    76   117   118    1
    77   129   126    1
    78   129   130    1
    79   119   118   ar
    80   125   126    1
    81    16    15    1
    82    16    19    1
    83    22    24   ar
    84    22    20   ar
    85   118   120   ar
    86   112   108   am
    87    40    41   ar
    88   109   108    2
    89    37    39   ar
    90    24    23   ar
    91   108   107    1
    92    20    19    1
    93    20    21   ar
    94   111   110    1
    95   111   180    1
    96    41    39   ar
    97    41    42    1
    98   110   107    1
    99    23    21   ar
   100   107   106    1
   101   106   103   am
   102   134   133    2
   103   180   179    1
   104   135   136    1
   105   135   137    1
   106   135   132    1
   107   103   102    1
   108   103   104    2
   109   141   140    2
   110   102   105    1
   111   102   101    1
   112   133   132    1
   113   133   138   am
   114   131   132    1
   115   179   176    1
   116    83    82    1
   117    96    95    2
   118    84    82    1
   119   140   139    1
   120   140   144   am
   121   139   138    1
   122   139   142    1
   123   101    95   am
   124    95    94    1
   125    82    81    1
   126   176   175    1
   127   176   177    1
   128   175   173   am
   129   144   145    1
   130   173   172    1
   131   173   174    2
   132   172   171    1
   133   145   148    1
   134   145   146    1
   135   143   142    1
   136    81    78    1
   137   178   177    2
   138   171   164   am
   139   148   149    1
   140   161   160    2
   141   158   146   am
   142   158   159    1
   143    94    93    1
   144    94    97    1
   145    78    79    1
   146    78    77    1
   147   146   147    2
   148    97    98    1
   149   191   189    1
   150   227   225   ar
   151   227   229   ar
   152    80    79    2
   153    98   100   ar
   154    98    99   ar
   155   160   159    1
   156   160   162   am
   157   230   229    1
   158   164   163    1
   159   164   165    2
   160   225   224   ar
   161   188   189    2
   162   188   187    1
   163   149   150   ar
   164   149   151   ar
   165   211   210    2
   166   163   162    1
   167   163   166    1
   168   189   190    1
   169   150   152   ar
   170   229   228   ar
   171   187   186    1
   172   220   221    1
   173   220   223    1
   174   220   219    1
   175   224   223    1
   176   224   226   ar
   177   151   154   ar
   178   151   153   ar
   179   210   219   am
   180   210   209    1
   181   186   185    1
   182   221   222    2
   183   154   156   ar
   184   166   167    1
   185   228   226   ar
   186   152   153   ar
   187   181   182    1
   188   167   168    1
   189   205   206    1
   190   205   204    1
   191   208   209    1
   192   208   206   am
   193   153   155   ar
   194   209   212    1
   195   182   185    1
   196   182   183    1
   197   206   207    2
   198   212   213    1
   199   156   157   ar
   200    92    90    1
   201   204   194   am
   202   168   170   ar
   203   168   169   ar
   204   195   194    2
   205   155   157   ar
   206   194   193    1
   207   214   213   ar
   208   214   216   ar
   209   183   184    2
   210   213   215   ar
   211    90    89    1
   212    91    89    1
   213   193   192    1
   214   193   196    1
   215   216   218   ar
   216    89    86    1
   217   215   217   ar
   218   196   197    1
   219   218   217   ar
   220    86    85    1
   221    86    87    1
   222   197   199   ar
   223   197   198   ar
   224    87    88    2
   225   199   201   ar
   226   198   200   ar
   227   201   202   ar
   228   200   202   ar
   229   202   203    1
