@<TRIPOS>MOLECULE
tmp/1b5qA01.pdb
 142 141 0 0 0
SMALL
GASTEIGER

@<TRIPOS>ATOM
      1  N        128.7130   53.1640  -10.7790 N.3    56  TRP56      -0.1241
      2  CA       127.5640   53.6120  -11.5540 C.3    56  TRP56       0.1605
      3  C        127.9430   54.5230  -12.7170 C.2    56  TRP56       0.2264
      4  O        128.9210   55.2680  -12.6670 O.2    56  TRP56      -0.2867
      5  CB       126.6790   54.5740  -10.7360 C.3    56  TRP56       0.0550
      6  CG       125.7490   53.9600   -9.6830 C.ar   56  TRP56       0.0003
      7  CD1      124.4330   53.6750   -9.8460 C.ar   56  TRP56       0.0946
      8  CD2      126.0560   53.6200   -8.3190 C.ar   56  TRP56       0.0152
      9  NE1      123.8860   53.1830   -8.6800 N.ar   56  TRP56      -0.2442
     10  CE2      124.8780   53.1080   -7.7360 C.ar   56  TRP56       0.0810
     11  CE3      127.2060   53.7490   -7.5210 C.ar   56  TRP56       0.0012
     12  CZ2      124.8230   52.6510   -6.4220 C.ar   56  TRP56       0.0191
     13  CZ3      127.1540   53.2830   -6.1880 C.ar   56  TRP56       0.0001
     14  CH2      125.9600   52.7590   -5.6510 C.ar   56  TRP56       0.0015
     15  N        126.6780   57.7040  -13.9170 N.3    58  GLU58      -0.1245
     16  CA       125.7120   58.6580  -13.3900 C.3    58  GLU58       0.1567
     17  C        125.3580   59.7610  -14.3510 C.2    58  GLU58       0.2260
     18  O        126.2380   60.4070  -14.8940 O.2    58  GLU58      -0.2867
     19  CB       126.2880   59.3070  -12.1290 C.3    58  GLU58       0.0388
     20  CG       126.7090   58.2700  -11.0810 C.3    58  GLU58       0.1160
     21  CD       126.8590   58.8890   -9.7140 C.2    58  GLU58       0.3649
     22  OE1      125.9870   59.6970   -9.3400 O.co2  58  GLU58      -0.2457
     23  OE2      127.9470   58.7620   -9.1280 O.co2  58  GLU58      -0.2457
     24  N        115.4490   55.0740   -6.1800 N.3    85  PHE85      -0.1241
     25  CA       115.5280   55.5550   -4.8060 C.3    85  PHE85       0.1605
     26  C        114.1740   55.9960   -4.3020 C.2    85  PHE85       0.2264
     27  O        114.0450   56.6190   -3.2460 O.2    85  PHE85      -0.2867
     28  CB       116.5260   56.7270   -4.7480 C.3    85  PHE85       0.0534
     29  CG       117.9350   56.3350   -5.1100 C.ar   85  PHE85      -0.0203
     30  CD1      118.4650   56.6050   -6.3630 C.ar   85  PHE85      -0.0042
     31  CD2      118.7040   55.6050   -4.2240 C.ar   85  PHE85      -0.0042
     32  CE1      119.7710   56.1890   -6.7090 C.ar   85  PHE85      -0.0003
     33  CE2      119.9900   55.1830   -4.5510 C.ar   85  PHE85      -0.0003
     34  CZ       120.5410   55.4810   -5.7940 C.ar   85  PHE85      -0.0000
     35  N        126.5880   60.8900    0.6210 N.3   165  TYR165     -0.1227
     36  CA       126.6050   59.6600   -0.1780 C.3   165  TYR165      0.1736
     37  C        126.9560   60.0310   -1.6450 C.2   165  TYR165      0.2595
     38  O        127.3450   59.1560   -2.4160 O.2   165  TYR165     -0.2718
     39  CB       125.2140   59.0300   -0.0700 C.3   165  TYR165      0.0548
     40  CG       124.9580   57.7170   -0.8170 C.ar  165  TYR165     -0.0200
     41  CD1      125.8120   56.6250   -0.6890 C.ar  165  TYR165     -0.0009
     42  CD2      123.8090   57.5340   -1.5820 C.ar  165  TYR165     -0.0009
     43  CE1      125.5290   55.3920   -1.3290 C.ar  165  TYR165      0.0417
     44  CE2      123.5320   56.3150   -2.1860 C.ar  165  TYR165      0.0417
     45  CZ       124.3850   55.2460   -2.0670 C.ar  165  TYR165      0.1957
     46  OH       124.1010   54.0050   -2.6230 O.3   165  TYR165     -0.2866
     47  N        126.8090   61.2860   -2.0720 N.am  166  GLU166     -0.1965
     48  CA       127.2380   61.6260   -3.4240 C.3   166  GLU166      0.1733
     49  C        128.6420   62.2560   -3.3420 C.2   166  GLU166      0.2616
     50  O        129.5600   61.8920   -4.0710 O.2   166  GLU166     -0.2715
     51  CB       126.3310   62.6770   -4.0620 C.3   166  GLU166      0.0429
     52  CG       126.6410   62.9380   -5.5610 C.3   166  GLU166      0.1163
     53  CD       126.4570   61.6690   -6.4240 C.2   166  GLU166      0.3649
     54  OE1      127.2380   61.3770   -7.3580 O.co2 166  GLU166     -0.2457
     55  OE2      125.5040   60.9120   -6.1350 O.co2 166  GLU166     -0.2457
     56  N        128.7980   63.2580   -2.4820 N.am  167  PHE167     -0.1974
     57  CA       130.0470   64.0230   -2.3990 C.3   167  PHE167      0.1639
     58  C        131.1450   63.5220   -1.4880 C.2   167  PHE167      0.2290
     59  O        132.2820   63.9170   -1.6570 O.2   167  PHE167     -0.2864
     60  CB       129.7680   65.4780   -2.0120 C.3   167  PHE167      0.0560
     61  CG       128.7900   66.1500   -2.9350 C.ar  167  PHE167     -0.0200
     62  CD1      127.5930   66.6770   -2.4680 C.ar  167  PHE167     -0.0042
     63  CD2      129.0320   66.1540   -4.3080 C.ar  167  PHE167     -0.0042
     64  CE1      126.6890   67.2390   -3.3520 C.ar  167  PHE167     -0.0003
     65  CE2      128.1250   66.7080   -5.1950 C.ar  167  PHE167     -0.0003
     66  CZ       126.9640   67.2660   -4.7220 C.ar  167  PHE167     -0.0000
     67  N        124.0070   70.2240   -9.7040 N.3   182  LEU182     -0.1245
     68  CA       125.1920   69.5980  -10.2130 C.3   182  LEU182      0.1561
     69  C        125.0690   69.3340  -11.7190 C.2   182  LEU182      0.2260
     70  O        124.1260   68.7090  -12.2100 O.2   182  LEU182     -0.2867
     71  CB       125.2380   68.3150   -9.4390 C.3   182  LEU182      0.0270
     72  CG       126.5560   67.6030   -9.5920 C.3   182  LEU182      0.0019
     73  CD1      127.5580   68.4100   -8.8440 C.3   182  LEU182      0.0001
     74  CD2      126.3270   66.3270   -8.8010 C.3   182  LEU182      0.0001
     75  N        120.7080   57.0040  -12.7960 N.3   192  VAL192     -0.1245
     76  CA       122.0240   56.4370  -12.5850 C.3   192  VAL192      0.1561
     77  C        121.8020   54.9310  -12.7850 C.2   192  VAL192      0.2260
     78  O        120.7440   54.3720  -12.4480 O.2   192  VAL192     -0.2867
     79  CB       122.5610   56.7610  -11.1550 C.3   192  VAL192      0.0252
     80  CG1      122.6320   58.2620  -10.9060 C.3   192  VAL192      0.0019
     81  CG2      121.6590   56.1220  -10.0920 C.3   192  VAL192      0.0019
     82  N        135.4470   57.5520    0.0460 N.3   294  TYR294     -0.1241
     83  CA       134.1390   56.8830    0.0580 C.3   294  TYR294      0.1605
     84  C        134.4760   55.4020    0.1000 C.2   294  TYR294      0.2264
     85  O        135.1520   54.8630   -0.7740 O.2   294  TYR294     -0.2867
     86  CB       133.5280   57.2450   -1.2860 C.3   294  TYR294      0.0534
     87  CG       132.1800   56.6600   -1.6810 C.ar  294  TYR294     -0.0201
     88  CD1      131.0300   57.4390   -1.6240 C.ar  294  TYR294     -0.0009
     89  CD2      132.1010   55.3920   -2.2770 C.ar  294  TYR294     -0.0009
     90  CE1      129.8180   56.9340   -2.1100 C.ar  294  TYR294      0.0417
     91  CE2      130.9020   54.8780   -2.7920 C.ar  294  TYR294      0.0417
     92  CZ       129.7630   55.6600   -2.6740 C.ar  294  TYR294      0.1957
     93  OH       128.5560   55.1500   -3.0840 O.3   294  TYR294     -0.2866
     94  N        137.8180   60.5020   -4.6310 N.3   399  PHE399     -0.1227
     95  CA       137.4380   61.4930   -5.6520 C.3   399  PHE399      0.1736
     96  C        137.4450   62.8860   -5.0790 C.2   399  PHE399      0.2596
     97  O        137.2530   63.0300   -3.8750 O.2   399  PHE399     -0.2718
     98  CB       136.1130   61.2120   -6.3850 C.3   399  PHE399      0.0547
     99  CG       134.9840   60.7940   -5.4820 C.ar  399  PHE399     -0.0202
    100  CD1      134.2020   61.7500   -4.8450 C.ar  399  PHE399     -0.0042
    101  CD2      134.6770   59.4430   -5.3320 C.ar  399  PHE399     -0.0042
    102  CE1      133.1250   61.3410   -4.0430 C.ar  399  PHE399     -0.0003
    103  CE2      133.6030   59.0230   -4.5440 C.ar  399  PHE399     -0.0003
    104  CZ       132.8260   59.9740   -3.8770 C.ar  399  PHE399     -0.0000
    105  N        137.6620   63.8990   -5.9150 N.am  400  SER400     -0.1938
    106  CA       137.7320   65.2620   -5.3840 C.3   400  SER400      0.2055
    107  C        136.3450   65.7740   -5.0270 C.2   400  SER400      0.2643
    108  O        135.3480   65.2830   -5.5590 O.2   400  SER400     -0.2714
    109  CB       138.4110   66.1800   -6.4000 C.3   400  SER400      0.2130
    110  OG       137.5610   66.3800   -7.5360 O.3   400  SER400     -0.2179
    111  N        136.2970   66.8050   -4.1920 N.am  401  ASN401     -0.1971
    112  CA       135.0250   67.4440   -3.8380 C.3   401  ASN401      0.1688
    113  C        135.3650   68.9340   -3.6910 C.2   401  ASN401      0.2292
    114  O        136.4570   69.3110   -3.2480 O.2   401  ASN401     -0.2864
    115  CB       134.5100   66.9420   -2.4870 C.3   401  ASN401      0.1181
    116  CG       133.1790   67.5610   -2.1570 C.2   401  ASN401      0.2629
    117  OD1      132.2860   67.5420   -2.9990 O.2   401  ASN401     -0.2716
    118  ND2      133.0470   68.1360   -0.9610 N.am  401  ASN401     -0.0877
    119  N        133.8720   67.2450  -12.0710 N.3   433  ASN433     -0.1225
    120  CA       134.8200   66.6470  -11.1090 C.3   433  ASN433      0.1785
    121  C        134.1010   65.5570  -10.2840 C.2   433  ASN433      0.2598
    122  O        132.8860   65.6510   -9.9950 O.2   433  ASN433     -0.2718
    123  CB       135.4620   67.6880  -10.1670 C.3   433  ASN433      0.1169
    124  CG       134.5090   68.1790   -9.0810 C.2   433  ASN433      0.2627
    125  OD1      134.5310   67.7400   -7.9180 O.2   433  ASN433     -0.2716
    126  ND2      133.6680   69.1010   -9.4710 N.am  433  ASN433     -0.0877
    127  N        134.8580   64.5290   -9.9240 N.am  434  GLY434     -0.1942
    128  CA       134.3130   63.4520   -9.1150 C.3   434  GLY434      0.2014
    129  C        133.7390   62.2590   -9.8590 C.2   434  GLY434      0.2638
    130  O        133.3140   61.3400   -9.1650 O.2   434  GLY434     -0.2714
    131  N        133.7150   62.2370  -11.1990 N.am  435  TYR435     -0.1973
    132  CA       133.0280   61.1640  -11.9500 C.3   435  TYR435      0.1639
    133  C        133.8560   60.5030  -13.0310 C.2   435  TYR435      0.2290
    134  O        134.8920   61.0030  -13.4580 O.2   435  TYR435     -0.2864
    135  CB       131.7940   61.7280  -12.6710 C.3   435  TYR435      0.0560
    136  CG       130.7390   62.2360  -11.7160 C.ar  435  TYR435     -0.0198
    137  CD1      130.7260   63.5700  -11.2990 C.ar  435  TYR435     -0.0009
    138  CD2      129.8290   61.3610  -11.1390 C.ar  435  TYR435     -0.0009
    139  CE1      129.7920   64.0150  -10.3420 C.ar  435  TYR435      0.0417
    140  CE2      128.8750   61.7960  -10.2150 C.ar  435  TYR435      0.0417
    141  CZ       128.8610   63.1210   -9.8350 C.ar  435  TYR435      0.1957
    142  OH       127.9130   63.5080   -8.9230 O.3   435  TYR435     -0.2866
@<TRIPOS>BOND
     1    18    17    2
     2    17    16    1
     3    15    16    1
     4   134   133    2
     5    16    19    1
     6   133   132    1
     7    75    76    1
     8    77    76    1
     9    77    78    2
    10     3     4    2
    11     3     2    1
    12   135   132    1
    13   135   136    1
    14    76    79    1
    15    70    69    2
    16    19    20    1
    17   119   120    1
    18   132   131    1
    19    69    68    1
    20   136   137   ar
    21   136   138   ar
    22     2     1    1
    23     2     5    1
    24   137   139   ar
    25   131   129   am
    26    79    80    1
    27    79    81    1
    28   138   140   ar
    29   120   121    1
    30   120   123    1
    31    20    21    1
    32     5     6    1
    33   139   141   ar
    34   121   122    2
    35   121   127   am
    36   140   141   ar
    37    68    67    1
    38    68    71    1
    39   123   124    1
    40   127   128    1
    41   129   130    2
    42   129   128    1
    43     7     6   ar
    44     7     9   ar
    45   141   142    1
    46    21    22   ar
    47    21    23   ar
    48     6     8   ar
    49    72    71    1
    50    72    73    1
    51    72    74    1
    52   126   124   am
    53   124   125    2
    54     9    10   ar
    55     8    10   ar
    56     8    11   ar
    57    10    12   ar
    58   110   109    1
    59    11    13   ar
    60    54    53   ar
    61    32    30   ar
    62    32    34   ar
    63    53    55   ar
    64    53    52    1
    65    12    14   ar
    66   109   106    1
    67    98    95    1
    68    98    99    1
    69    30    29   ar
    70    13    14   ar
    71    24    25    1
    72   105   106    1
    73   105    96   am
    74    34    33   ar
    75    95    96    1
    76    95    94    1
    77    52    51    1
    78   108   107    2
    79    99   101   ar
    80    99   100   ar
    81   106   107    1
    82   101   103   ar
    83    65    66   ar
    84    65    63   ar
    85    29    28    1
    86    29    31   ar
    87    96    97    2
    88   107   111   am
    89   100   102   ar
    90    25    28    1
    91    25    26    1
    92    66    64   ar
    93    33    31   ar
    94   103   104   ar
    95    63    61   ar
    96    26    27    2
    97   111   112    1
    98    50    49    2
    99    51    48    1
   100   102   104   ar
   101   112   113    1
   102   112   115    1
   103   113   114    2
   104    48    49    1
   105    48    47    1
   106    64    62   ar
   107    49    56   am
   108    93    92    1
   109   117   116    2
   110    61    62   ar
   111    61    60    1
   112    91    92   ar
   113    91    89   ar
   114    92    90   ar
   115    46    45    1
   116   115   116    1
   117    56    57    1
   118    38    37    2
   119    57    60    1
   120    57    58    1
   121    89    87   ar
   122    44    45   ar
   123    44    42   ar
   124   116   118   am
   125    90    88   ar
   126    47    37   am
   127    45    43   ar
   128    87    88   ar
   129    87    86    1
   130    59    58    2
   131    37    36    1
   132    42    40   ar
   133    43    41   ar
   134    86    83    1
   135    40    41   ar
   136    40    39    1
   137    85    84    2
   138    36    39    1
   139    36    35    1
   140    82    83    1
   141    83    84    1
