@<TRIPOS>MOLECULE
tmp/1b62A00.pdb
 166 157 0 0 0
SMALL
GASTEIGER

@<TRIPOS>ATOM
      1  N          1.6100   22.2160   62.4650 N.3    31  GLU31      -0.1231
      2  CA         0.9650   22.4360   61.1720 C.3    31  GLU31       0.1699
      3  C          0.7500   21.1420   60.3860 C.2    31  GLU31       0.2592
      4  O         -0.3470   20.9000   59.8680 O.2    31  GLU31      -0.2718
      5  CB         1.7800   23.4080   60.3090 C.3    31  GLU31       0.0402
      6  CG         1.8590   24.8500   60.8190 C.3    31  GLU31       0.1161
      7  CD         0.4930   25.4870   61.0440 C.2    31  GLU31       0.3649
      8  OE1       -0.4410   25.2170   60.2500 O.co2  31  GLU31      -0.2457
      9  OE2        0.3570   26.2810   62.0000 O.co2  31  GLU31      -0.2457
     10  N          1.7970   20.3220   60.2880 N.am   32  LEU32      -0.1980
     11  CA         1.7070   19.0630   59.5520 C.3    32  LEU32       0.1596
     12  C          0.7440   18.0410   60.1730 C.2    32  LEU32       0.2287
     13  O         -0.0280   17.4040   59.4600 O.2    32  LEU32      -0.2864
     14  CB         3.0970   18.4220   59.3950 C.3    32  LEU32       0.0297
     15  CG         4.2290   19.2790   58.8030 C.3    32  LEU32       0.0022
     16  CD1        5.3690   18.3500   58.3690 C.3    32  LEU32       0.0001
     17  CD2        3.7400   20.1140   57.6170 C.3    32  LEU32       0.0001
     18  N         -2.7080   18.9940   59.5080 N.3    35  ASN35      -0.1225
     19  CA        -3.1230   18.6970   58.1320 C.3    35  ASN35       0.1785
     20  C         -3.5330   17.2300   58.0080 C.2    35  ASN35       0.2597
     21  O         -4.4720   16.8990   57.2890 O.2    35  ASN35      -0.2718
     22  CB        -2.0060   18.9750   57.1050 C.3    35  ASN35       0.1169
     23  CG        -1.8640   20.4610   56.7790 C.2    35  ASN35       0.2627
     24  OD1       -2.8410   21.1850   56.8200 O.2    35  ASN35      -0.2716
     25  ND2       -0.6590   20.9020   56.4230 N.am   35  ASN35      -0.0877
     26  N         -2.8040   16.3560   58.6850 N.am   36  SER36      -0.1952
     27  CA        -3.1000   14.9360   58.6370 C.3    36  SER36       0.1924
     28  C         -4.4830   14.6930   59.2370 C.2    36  SER36       0.2314
     29  O         -5.2440   13.8530   58.7550 O.2    36  SER36      -0.2863
     30  CB        -2.0330   14.1620   59.4190 C.3    36  SER36       0.2116
     31  OG        -0.7370   14.4200   58.8880 O.3    36  SER36      -0.2180
     32  N         -7.1250   15.7340   56.9170 N.3    39  ALA39      -0.1245
     33  CA        -7.2100   14.7820   55.8250 C.3    39  ALA39       0.1562
     34  C         -7.8750   13.4690   56.2570 C.2    39  ALA39       0.2260
     35  O         -7.8890   12.4910   55.5000 O.2    39  ALA39      -0.2867
     36  CB        -5.8280   14.5150   55.2720 C.3    39  ALA39       0.0290
     37  N          0.8920   10.0060   57.4560 N.3    60  ASP60      -0.1239
     38  CA        -0.4720    9.7670   57.8920 C.3    60  ASP60       0.1674
     39  C         -1.1620    8.8120   56.9270 C.2    60  ASP60       0.2266
     40  O         -0.6680    8.5520   55.8250 O.2    60  ASP60      -0.2867
     41  CB        -1.2560   11.0870   57.9790 C.3    60  ASP60       0.1410
     42  CG        -1.4300   11.7620   56.6190 C.2    60  ASP60       0.3668
     43  OD1       -2.1020   11.1670   55.7520 O.co2  60  ASP60      -0.2456
     44  OD2       -0.8960   12.8830   56.4170 O.co2  60  ASP60      -0.2456
     45  N         -6.5190   10.7360   53.4250 N.3    63  CYS63      -0.1221
     46  CA        -6.9520   10.5320   52.0440 C.3    63  CYS63       0.1808
     47  C         -5.9620   10.9210   50.9540 C.2    63  CYS63       0.2602
     48  O         -6.2210   10.6720   49.7830 O.2    63  CYS63      -0.2717
     49  CB        -8.2970   11.2320   51.8020 C.3    63  CYS63       0.0970
     50  SG        -8.2400   13.0200   51.8990 S.3    63  CYS63      -0.0800
     51  N         -4.8300   11.5130   51.3390 N.am   64  GLY64      -0.1942
     52  CA        -3.8060   11.8900   50.3760 C.3    64  GLY64       0.2014
     53  C         -4.0790   13.1050   49.5070 C.2    64  GLY64       0.2638
     54  O         -5.1360   13.7210   49.6030 O.2    64  GLY64      -0.2714
     55  N         -3.1130   13.4290   48.6460 N.am   65  ILE65      -0.1977
     56  CA        -3.2080   14.5710   47.7320 C.3    65  ILE65       0.1596
     57  C         -3.0360   14.1490   46.2710 C.2    65  ILE65       0.2287
     58  O         -2.0220   13.5600   45.8990 O.2    65  ILE65      -0.2864
     59  CB        -2.1330   15.6450   48.0340 C.3    65  ILE65       0.0276
     60  CG1       -2.2840   16.1720   49.4630 C.3    65  ILE65       0.0022
     61  CG2       -2.2420   16.7840   47.0210 C.3    65  ILE65       0.0022
     62  CD1       -1.2440   17.2360   49.8340 C.3    65  ILE65       0.0001
     63  N         -0.7270   22.4960   46.7190 N.3    73  ALA73      -0.1245
     64  CA        -0.5870   22.3400   48.1660 C.3    73  ALA73       0.1562
     65  C          0.6440   23.1010   48.6690 C.2    73  ALA73       0.2260
     66  O          0.7030   23.5250   49.8220 O.2    73  ALA73      -0.2867
     67  CB        -0.4780   20.8710   48.5230 C.3    73  ALA73       0.0290
     68  N         -3.7230   28.9500   48.9380 N.3    78  ALA78      -0.1231
     69  CA        -4.4810   27.9380   48.2120 C.3    78  ALA78       0.1694
     70  C         -4.8650   26.8440   49.1910 C.2    78  ALA78       0.2593
     71  O         -4.0060   26.2210   49.8260 O.2    78  ALA78      -0.2718
     72  CB        -3.6510   27.3720   47.0730 C.3    78  ALA78       0.0304
     73  N         -6.1690   26.6150   49.3060 N.am   79  THR79      -0.1939
     74  CA        -6.6920   25.6300   50.2310 C.3    79  THR79       0.2028
     75  C         -7.8940   24.8970   49.6570 C.2    79  THR79       0.2643
     76  O         -8.5250   25.3590   48.6910 O.2    79  THR79      -0.2714
     77  CB        -7.1470   26.2990   51.5440 C.3    79  THR79       0.1808
     78  OG1       -7.6580   25.3060   52.4420 O.3    79  THR79      -0.2208
     79  CG2       -8.2450   27.3270   51.2550 C.3    79  THR79       0.0379
     80  N         -8.2040   23.7540   50.2710 N.am   80  SER80      -0.1935
     81  CA        -9.3420   22.9320   49.8780 C.3    80  SER80       0.2055
     82  C        -10.3610   22.9900   51.0100 C.2    80  SER80       0.2642
     83  O        -11.4080   22.3570   50.9350 O.2    80  SER80      -0.2714
     84  CB        -8.9010   21.4760   49.6930 C.3    80  SER80       0.2130
     85  OG        -8.4300   20.9440   50.9200 O.3    80  SER80      -0.2179
     86  N        -10.0600   23.7720   52.0450 N.am   81  LYS81      -0.1977
     87  CA       -10.9180   23.8350   53.2240 C.3    81  LYS81       0.1596
     88  C        -12.0050   24.9080   53.2670 C.2    81  LYS81       0.2287
     89  O        -13.0000   24.7410   53.9750 O.2    81  LYS81      -0.2864
     90  CB       -10.0140   23.8760   54.4650 C.3    81  LYS81       0.0298
     91  CG        -9.1150   22.6400   54.4920 C.3    81  LYS81       0.0038
     92  CD        -7.9200   22.6930   55.4480 C.3    81  LYS81       0.0206
     93  CE        -7.1120   21.3960   55.3070 C.3    81  LYS81       0.1093
     94  NZ        -5.8330   21.3880   56.0730 N.3    81  LYS81      -0.1314
     95  N         -7.3560   23.8040   59.3710 N.3    95  GLY95      -0.1210
     96  CA        -6.7400   24.7480   58.4520 C.3    95  GLY95       0.1956
     97  C         -7.7410   25.4980   57.5980 C.2    95  GLY95       0.2612
     98  O         -8.9430   25.2040   57.6190 O.2    95  GLY95      -0.2717
     99  N         -7.2430   26.4770   56.8500 N.am   96  PHE96      -0.1962
    100  CA        -8.0760   27.2790   55.9590 C.3    96  PHE96       0.1771
    101  C         -7.3310   28.4500   55.3210 C.2    96  PHE96       0.2619
    102  O         -7.8160   29.0370   54.3490 O.2    96  PHE96      -0.2715
    103  CB        -9.3210   27.7880   56.6990 C.3    96  PHE96       0.0574
    104  CG        -9.0200   28.7250   57.8440 C.ar   96  PHE96      -0.0200
    105  CD1       -8.6940   30.0620   57.6150 C.ar   96  PHE96      -0.0042
    106  CD2       -9.0330   28.2550   59.1580 C.ar   96  PHE96      -0.0042
    107  CE1       -8.3850   30.9140   58.6820 C.ar   96  PHE96      -0.0003
    108  CE2       -8.7250   29.0980   60.2320 C.ar   96  PHE96      -0.0003
    109  CZ        -8.3980   30.4310   59.9940 C.ar   96  PHE96      -0.0000
    110  N         -6.1580   28.7890   55.8540 N.am   97  ARG97      -0.1963
    111  CA        -5.3860   29.9060   55.3040 C.3    97  ARG97       0.1729
    112  C         -4.6110   29.5030   54.0550 C.2    97  ARG97       0.2617
    113  O         -4.2890   30.3450   53.2130 O.2    97  ARG97      -0.2715
    114  CB        -4.4120   30.4750   56.3440 C.3    97  ARG97       0.0348
    115  CG        -5.0660   31.0530   57.6060 C.3    97  ARG97       0.0492
    116  CD        -4.1090   32.0090   58.3200 C.3    97  ARG97       0.2205
    117  NE        -4.6590   32.5500   59.5640 N.pl3  97  ARG97      -0.0865
    118  CZ        -4.7290   31.8770   60.7100 C.cat  97  ARG97       0.5346
    119  NH1       -4.2790   30.6310   60.7700 N.pl3  97  ARG97       0.1354
    120  NH2       -5.2400   32.4490   61.7970 N.pl3  97  ARG97       0.1354
    121  N         -4.3130   28.2130   53.9410 N.am   98  GLY98      -0.1940
    122  CA        -3.5800   27.7200   52.7850 C.3    98  GLY98       0.2014
    123  C         -2.1650   28.2600   52.6510 C.2    98  GLY98       0.2639
    124  O         -1.6180   28.3040   51.5470 O.2    98  GLY98      -0.2714
    125  N         -1.5690   28.6380   53.7790 N.am   99  GLU99      -0.1963
    126  CA        -0.2220   29.2020   53.8330 C.3    99  GLU99       0.1733
    127  C          0.8850   28.3390   54.4640 C.2    99  GLU99       0.2616
    128  O          2.0640   28.4720   54.1050 O.2    99  GLU99      -0.2715
    129  CB        -0.2610   30.5310   54.6060 C.3    99  GLU99       0.0429
    130  CG        -0.9380   31.6960   53.8920 C.3    99  GLU99       0.1163
    131  CD        -0.1540   32.1510   52.6790 C.2    99  GLU99       0.3649
    132  OE1       -0.0830   31.3720   51.7060 O.co2  99  GLU99      -0.2457
    133  OE2        0.4090   33.2740   52.7070 O.co2  99  GLU99      -0.2457
    134  N          0.5160   27.4710   55.4020 N.am  100  ALA100     -0.1963
    135  CA         1.5000   26.6670   56.1230 C.3   100  ALA100      0.1728
    136  C          2.5710   25.9290   55.3110 C.2   100  ALA100      0.2616
    137  O          3.7710   26.1490   55.5170 O.2   100  ALA100     -0.2715
    138  CB         0.7890   25.6960   57.0530 C.3   100  ALA100      0.0334
    139  N          2.1740   25.0550   54.3990 N.am  101  LEU101     -0.1963
    140  CA         3.1880   24.3350   53.6470 C.3   101  LEU101      0.1728
    141  C          4.0760   25.2650   52.8180 C.2   101  LEU101      0.2616
    142  O          5.2950   25.0960   52.7970 O.2   101  LEU101     -0.2715
    143  CB         2.5530   23.2510   52.7680 C.3   101  LEU101      0.0311
    144  CG         1.8960   22.0890   53.5270 C.3   101  LEU101      0.0022
    145  CD1        1.5100   20.9980   52.5470 C.3   101  LEU101      0.0001
    146  CD2        2.8660   21.5210   54.5570 C.3   101  LEU101      0.0001
    147  N          3.4770   26.2530   52.1600 N.am  102  ALA102     -0.1977
    148  CA         4.2470   27.2040   51.3480 C.3   102  ALA102      0.1597
    149  C          5.3340   27.8840   52.1970 C.2   102  ALA102      0.2287
    150  O          6.4970   27.9630   51.7950 O.2   102  ALA102     -0.2864
    151  CB         3.3090   28.2550   50.7450 C.3   102  ALA102      0.0319
    152  N         -0.2540   10.4110   53.1300 N.3   145  THR145     -0.1218
    153  CA         0.7580   11.4050   52.8560 C.3   145  THR145      0.1862
    154  C          1.9020   11.4000   53.8580 C.2   145  THR145      0.2287
    155  O          1.7380   11.0170   55.0170 O.2   145  THR145     -0.2866
    156  CB         0.1020   12.7980   52.8600 C.3   145  THR145      0.1770
    157  OG1       -0.9700   12.8140   51.9060 O.3   145  THR145     -0.2211
    158  CG2        1.1230   13.8870   52.5270 C.3   145  THR145      0.0375
    159  N          5.1410   14.1030   54.9260 N.3   147  LEU147     -0.1245
    160  CA         5.8350   15.3660   54.7390 C.3   147  LEU147      0.1561
    161  C          7.2140   15.1480   55.3330 C.2   147  LEU147      0.2260
    162  O          7.3520   14.5370   56.3950 O.2   147  LEU147     -0.2867
    163  CB         5.1380   16.5190   55.4670 C.3   147  LEU147      0.0270
    164  CG         4.0950   17.2800   54.6500 C.3   147  LEU147      0.0019
    165  CD1        4.7950   17.9470   53.4620 C.3   147  LEU147      0.0001
    166  CD2        2.9960   16.3270   54.1680 C.3   147  LEU147      0.0001
@<TRIPOS>BOND
     1    58    57    2
     2    57    56    1
     3    63    64    1
     4    61    59    1
     5    72    69    1
     6    56    59    1
     7    56    55    1
     8    59    60    1
     9    64    67    1
    10    64    65    1
    11    69    68    1
    12    69    70    1
    13    55    53   am
    14    65    66    2
    15    76    75    2
    16    70    73   am
    17    70    71    2
    18    73    74    1
    19    60    62    1
    20    53    54    2
    21    53    52    1
    22    75    74    1
    23    75    80   am
    24    84    81    1
    25    84    85    1
    26    48    47    2
    27    81    80    1
    28    81    82    1
    29    74    77    1
    30    52    51    1
    31   151   148    1
    32    83    82    2
    33    47    51   am
    34    47    46    1
    35    82    86   am
    36    79    77    1
    37   148   147    1
    38   148   149    1
    39    77    78    1
    40   124   123    2
    41   132   131   ar
    42   150   149    2
    43    49    50    1
    44    49    46    1
    45   157   156    1
    46    46    45    1
    47    86    87    1
    48   147   141   am
    49   158   156    1
    50   145   144    1
    51   123   122    1
    52   123   125   am
    53   131   133   ar
    54   131   130    1
    55   143   144    1
    56   143   140    1
    57   122   121    1
    58   142   141    2
    59   141   140    1
    60   153   156    1
    61   153   152    1
    62   153   154    1
    63   113   112    2
    64    87    88    1
    65    87    90    1
    66    88    89    2
    67   165   164    1
    68   144   146    1
    69   140   139    1
    70   125   126    1
    71   126   127    1
    72   126   129    1
    73   154   155    2
    74   130   129    1
    75   121   112   am
    76   112   111    1
    77   128   127    2
    78   166   164    1
    79   102   101    2
    80   139   136   am
    81   127   134   am
    82    90    91    1
    83    91    92    1
    84   164   163    1
    85   160   159    1
    86   160   161    1
    87   160   163    1
    88    36    33    1
    89   111   110    1
    90   111   114    1
    91    93    92    1
    92    93    94    1
    93   136   137    2
    94   136   135    1
    95   101   110   am
    96   101   100    1
    97   161   162    2
    98   134   135    1
    99    35    34    2
   100    43    42   ar
   101    33    34    1
   102    33    32    1
   103    40    39    2
   104   100   103    1
   105   100    99    1
   106   135   138    1
   107   114   115    1
   108    44    42   ar
   109    25    23   am
   110    42    41    1
   111   103   104    1
   112    23    24    2
   113    23    22    1
   114    99    97   am
   115    39    38    1
   116    22    19    1
   117    21    20    2
   118    37    38    1
   119    97    98    2
   120    97    96    1
   121   115   116    1
   122   105   104   ar
   123   105   107   ar
   124    17    15    1
   125   104   106   ar
   126    38    41    1
   127    20    19    1
   128    20    26   am
   129    19    18    1
   130   116   117    1
   131    16    15    1
   132    96    95    1
   133    27    26    1
   134    27    28    1
   135    27    30    1
   136   107   109   ar
   137    29    28    2
   138    15    14    1
   139    31    30    1
   140   106   108   ar
   141    14    11    1
   142    13    12    2
   143    11    12    1
   144    11    10    1
   145   117   118    2
   146     4     3    2
   147   109   108   ar
   148     8     7   ar
   149    10     3   am
   150     5     6    1
   151     5     2    1
   152     3     2    1
   153   118   119    1
   154   118   120    1
   155     6     7    1
   156     7     9   ar
   157     2     1    1
