@<TRIPOS>MOLECULE
tmp/1b63A00.pdb
 189 177 0 0 0
SMALL
GASTEIGER

@<TRIPOS>ATOM
      1  N          2.1330   21.8960   62.2310 N.3    31  GLU31      -0.1231
      2  CA         1.4830   22.0960   60.9380 C.3    31  GLU31       0.1699
      3  C          1.3510   20.8410   60.0760 C.2    31  GLU31       0.2592
      4  O          0.3060   20.6230   59.4590 O.2    31  GLU31      -0.2718
      5  CB         2.2190   23.1690   60.1190 C.3    31  GLU31       0.0402
      6  CG         2.1430   24.5850   60.6770 C.3    31  GLU31       0.1161
      7  CD         0.7150   25.0490   60.8840 C.2    31  GLU31       0.3649
      8  OE1       -0.1620   24.6290   60.1020 O.co2  31  GLU31      -0.2457
      9  OE2        0.4690   25.8490   61.8170 O.co2  31  GLU31      -0.2457
     10  N          2.4020   20.0240   60.0140 N.am   32  LEU32      -0.1980
     11  CA         2.3590   18.8230   59.1850 C.3    32  LEU32       0.1596
     12  C          1.4220   17.7640   59.7590 C.2    32  LEU32       0.2287
     13  O          0.6850   17.1150   59.0180 O.2    32  LEU32      -0.2864
     14  CB         3.7610   18.2190   59.0040 C.3    32  LEU32       0.0297
     15  CG         4.8540   19.1270   58.4210 C.3    32  LEU32       0.0022
     16  CD1        6.0150   18.2610   57.9750 C.3    32  LEU32       0.0001
     17  CD2        4.3360   19.9220   57.2390 C.3    32  LEU32       0.0001
     18  N         -2.0700   18.5280   59.1500 N.3    35  ASN35      -0.1225
     19  CA        -2.4490   18.2140   57.7770 C.3    35  ASN35       0.1785
     20  C         -2.8150   16.7470   57.6610 C.2    35  ASN35       0.2597
     21  O         -3.7760   16.3900   56.9720 O.2    35  ASN35      -0.2718
     22  CB        -1.3220   18.5120   56.7860 C.3    35  ASN35       0.1169
     23  CG        -1.2040   19.9750   56.4940 C.2    35  ASN35       0.2627
     24  OD1       -2.1730   20.7030   56.6540 O.2    35  ASN35      -0.2716
     25  ND2       -0.0360   20.4130   56.0310 N.am   35  ASN35      -0.0877
     26  N         -2.0410   15.9020   58.3350 N.am   36  SER36      -0.1952
     27  CA        -2.2720   14.4710   58.3010 C.3    36  SER36       0.1924
     28  C         -3.6290   14.1720   58.9120 C.2    36  SER36       0.2314
     29  O         -4.3690   13.3280   58.4080 O.2    36  SER36      -0.2863
     30  CB        -1.1610   13.7390   59.0480 C.3    36  SER36       0.2116
     31  OG         0.0920   13.9870   58.4250 O.3    36  SER36      -0.2180
     32  N         -6.4150   15.0930   56.6730 N.3    39  ALA39      -0.1245
     33  CA        -6.4630   14.1540   55.5590 C.3    39  ALA39       0.1562
     34  C         -7.1370   12.8310   55.9100 C.2    39  ALA39       0.2260
     35  O         -7.1960   11.9210   55.0780 O.2    39  ALA39      -0.2867
     36  CB        -5.0430   13.8970   55.0410 C.3    39  ALA39       0.0290
     37  N          1.7790    9.5550   56.8920 N.3    60  ASP60      -0.1239
     38  CA         0.4460    9.2550   57.3790 C.3    60  ASP60       0.1674
     39  C         -0.2780    8.3620   56.3830 C.2    60  ASP60       0.2266
     40  O          0.1440    8.2180   55.2390 O.2    60  ASP60      -0.2867
     41  CB        -0.3570   10.5410   57.5810 C.3    60  ASP60       0.1410
     42  CG        -0.6590   11.2510   56.2730 C.2    60  ASP60       0.3668
     43  OD1       -1.3880   10.6720   55.4380 O.co2  60  ASP60      -0.2456
     44  OD2       -0.1680   12.3840   56.0770 O.co2  60  ASP60      -0.2456
     45  N         -5.7140   10.3960   53.1000 N.3    63  CYS63      -0.1221
     46  CA        -6.2070   10.2200   51.7360 C.3    63  CYS63       0.1808
     47  C         -5.2060   10.5320   50.6280 C.2    63  CYS63       0.2602
     48  O         -5.3840   10.1080   49.4890 O.2    63  CYS63      -0.2717
     49  CB        -7.4920   11.0380   51.5260 C.3    63  CYS63       0.0970
     50  SG        -7.3010   12.8320   51.5400 S.3    63  CYS63      -0.0800
     51  N         -4.1550   11.2760   50.9480 N.am   64  GLY64      -0.1942
     52  CA        -3.1690   11.5910   49.9350 C.3    64  GLY64       0.2014
     53  C         -3.4930   12.8150   49.1040 C.2    64  GLY64       0.2638
     54  O         -4.5340   13.4490   49.2810 O.2    64  GLY64      -0.2714
     55  N         -2.5880   13.1380   48.1870 N.am   65  ILE65      -0.1977
     56  CA        -2.7350   14.2940   47.3140 C.3    65  ILE65       0.1596
     57  C         -2.6210   13.8290   45.8800 C.2    65  ILE65       0.2287
     58  O         -1.6710   13.1320   45.5150 O.2    65  ILE65      -0.2864
     59  CB        -1.6240   15.3340   47.5530 C.3    65  ILE65       0.0276
     60  CG1       -1.6630   15.8180   49.0040 C.3    65  ILE65       0.0022
     61  CG2       -1.7980   16.5060   46.5930 C.3    65  ILE65       0.0022
     62  CD1       -0.5430   16.7830   49.3440 C.3    65  ILE65       0.0001
     63  N         -2.3670   17.9630   41.8160 N.3    69  GLU69      -0.1245
     64  CA        -2.5550   18.9800   42.8490 C.3    69  GLU69       0.1567
     65  C         -1.3250   19.1440   43.7320 C.2    69  GLU69       0.2260
     66  O         -1.3190   19.9700   44.6420 O.2    69  GLU69      -0.2867
     67  CB        -3.7810   18.6680   43.7110 C.3    69  GLU69       0.0388
     68  CG        -5.0690   18.5940   42.9120 C.3    69  GLU69       0.1160
     69  CD        -6.3100   18.7100   43.7740 C.2    69  GLU69       0.3649
     70  OE1       -6.4130   17.9990   44.7900 O.co2  69  GLU69      -0.2457
     71  OE2       -7.1910   19.5140   43.4250 O.co2  69  GLU69      -0.2457
     72  N         -0.3780   22.2820   46.2960 N.3    73  ALA73      -0.1245
     73  CA        -0.1800   22.1440   47.7350 C.3    73  ALA73       0.1562
     74  C          1.0280   22.9670   48.2130 C.2    73  ALA73       0.2260
     75  O          1.1070   23.3500   49.3770 O.2    73  ALA73      -0.2867
     76  CB         0.0080   20.6880   48.0920 C.3    73  ALA73       0.0290
     77  N          1.8860   25.8100   46.6540 N.3    75  ALA75      -0.1245
     78  CA         1.6150   27.1780   46.2360 C.3    75  ALA75       0.1562
     79  C          1.0520   27.9890   47.3880 C.2    75  ALA75       0.2260
     80  O          0.6020   27.4280   48.3830 O.2    75  ALA75      -0.2867
     81  CB         0.6270   27.1830   45.0750 C.3    75  ALA75       0.0290
     82  N         -3.4410   28.5650   48.6680 N.3    78  ALA78      -0.1231
     83  CA        -4.2110   27.5380   47.9790 C.3    78  ALA78       0.1694
     84  C         -4.5750   26.4340   48.9490 C.2    78  ALA78       0.2593
     85  O         -3.7100   25.8720   49.6190 O.2    78  ALA78      -0.2718
     86  CB        -3.4210   26.9840   46.8110 C.3    78  ALA78       0.0304
     87  N         -5.8620   26.1230   49.0250 N.am   79  THR79      -0.1939
     88  CA        -6.3250   25.0910   49.9380 C.3    79  THR79       0.2028
     89  C         -7.5510   24.3540   49.4190 C.2    79  THR79       0.2643
     90  O         -8.2740   24.8380   48.5550 O.2    79  THR79      -0.2714
     91  CB        -6.6720   25.6970   51.3080 C.3    79  THR79       0.1808
     92  OG1       -7.1790   24.6730   52.1780 O.3    79  THR79      -0.2208
     93  CG2       -7.7160   26.8090   51.1520 C.3    79  THR79       0.0379
     94  N         -7.7770   23.1780   49.9730 N.am   80  SER80      -0.1935
     95  CA        -8.9180   22.3560   49.6090 C.3    80  SER80       0.2055
     96  C         -9.8820   22.3470   50.7910 C.2    80  SER80       0.2642
     97  O        -10.9410   21.7200   50.7380 O.2    80  SER80      -0.2714
     98  CB        -8.4500   20.9290   49.3490 C.3    80  SER80       0.2130
     99  OG        -7.8370   20.4020   50.5220 O.3    80  SER80      -0.2179
    100  N         -9.5130   23.0510   51.8570 N.am   81  LYS81      -0.1977
    101  CA       -10.3160   23.0500   53.0730 C.3    81  LYS81       0.1596
    102  C        -11.4400   24.0800   53.1680 C.2    81  LYS81       0.2287
    103  O        -12.3950   23.8810   53.9170 O.2    81  LYS81      -0.2864
    104  CB        -9.3630   23.1080   54.2750 C.3    81  LYS81       0.0298
    105  CG        -8.4020   21.9070   54.2250 C.3    81  LYS81       0.0038
    106  CD        -7.2620   21.9380   55.2290 C.3    81  LYS81       0.0206
    107  CE        -6.3400   20.7430   54.9820 C.3    81  LYS81       0.1093
    108  NZ        -5.1880   20.6800   55.9200 N.3    81  LYS81      -0.1314
    109  N         -6.6290   23.2620   59.1080 N.3    95  GLY95      -0.1210
    110  CA        -6.0780   24.2490   58.1990 C.3    95  GLY95       0.1956
    111  C         -7.1200   24.9510   57.3450 C.2    95  GLY95       0.2612
    112  O         -8.2240   24.4330   57.1490 O.2    95  GLY95      -0.2717
    113  N         -6.7700   26.1330   56.8390 N.am   96  PHE96      -0.1962
    114  CA        -7.6690   26.8980   55.9830 C.3    96  PHE96       0.1771
    115  C         -6.9890   28.0690   55.2670 C.2    96  PHE96       0.2619
    116  O         -7.5900   28.6890   54.3910 O.2    96  PHE96      -0.2715
    117  CB        -8.8870   27.3820   56.7930 C.3    96  PHE96       0.0574
    118  CG        -8.5350   28.2220   57.9830 C.ar   96  PHE96      -0.0200
    119  CD1       -8.2340   29.5720   57.8400 C.ar   96  PHE96      -0.0042
    120  CD2       -8.4460   27.6450   59.2490 C.ar   96  PHE96      -0.0042
    121  CE1       -7.8470   30.3410   58.9440 C.ar   96  PHE96      -0.0003
    122  CE2       -8.0630   28.3990   60.3490 C.ar   96  PHE96      -0.0003
    123  CZ        -7.7610   29.7520   60.1990 C.ar   96  PHE96      -0.0000
    124  N         -5.7300   28.3480   55.6020 N.am   97  ARG97      -0.1963
    125  CA        -5.0090   29.4660   54.9830 C.3    97  ARG97       0.1729
    126  C         -4.3530   29.1100   53.6520 C.2    97  ARG97       0.2617
    127  O         -4.0740   29.9970   52.8360 O.2    97  ARG97      -0.2715
    128  CB        -3.9380   30.0040   55.9470 C.3    97  ARG97       0.0348
    129  CG        -4.4790   30.3250   57.3490 C.3    97  ARG97       0.0492
    130  CD        -3.4100   30.8340   58.3300 C.3    97  ARG97       0.2205
    131  NE        -2.9370   32.1750   57.9930 N.pl3  97  ARG97      -0.0865
    132  CZ        -1.7810   32.4560   57.3960 C.cat  97  ARG97       0.5346
    133  NH1       -0.9320   31.4890   57.0490 N.pl3  97  ARG97       0.1354
    134  NH2       -1.4740   33.7210   57.1480 N.pl3  97  ARG97       0.1354
    135  N         -4.1180   27.8180   53.4420 N.am   98  GLY98      -0.1940
    136  CA        -3.4780   27.3350   52.2250 C.3    98  GLY98       0.2014
    137  C         -2.0440   27.8320   52.1390 C.2    98  GLY98       0.2639
    138  O         -1.4960   27.9610   51.0510 O.2    98  GLY98      -0.2714
    139  N         -1.4320   28.0640   53.3010 N.am   99  GLU99      -0.1963
    140  CA        -0.0860   28.6350   53.4040 C.3    99  GLU99       0.1733
    141  C          1.0590   27.8590   54.0660 C.2    99  GLU99       0.2616
    142  O          2.2190   28.0600   53.7120 O.2    99  GLU99      -0.2715
    143  CB        -0.2090   29.9700   54.1360 C.3    99  GLU99       0.0429
    144  CG        -0.7350   31.1290   53.3130 C.3    99  GLU99       0.1163
    145  CD         0.3630   31.7510   52.4670 C.2    99  GLU99       0.3649
    146  OE1        1.2510   32.3980   53.0610 O.co2  99  GLU99      -0.2457
    147  OE2        0.3600   31.5820   51.2280 O.co2  99  GLU99      -0.2457
    148  N          0.7420   26.9950   55.0250 N.am  100  ALA100     -0.1963
    149  CA         1.7700   26.2660   55.7770 C.3   100  ALA100      0.1728
    150  C          2.9050   25.6150   54.9880 C.2   100  ALA100      0.2616
    151  O          4.0790   25.8480   55.2840 O.2   100  ALA100     -0.2715
    152  CB         1.1140   25.2330   56.6720 C.3   100  ALA100      0.0334
    153  N          2.5690   24.7980   53.9970 N.am  101  LEU101     -0.1963
    154  CA         3.6010   24.1300   53.2190 C.3   101  LEU101      0.1728
    155  C          4.4780   25.0990   52.4320 C.2   101  LEU101      0.2616
    156  O          5.6940   24.9480   52.4100 O.2   101  LEU101     -0.2715
    157  CB         2.9800   23.0810   52.2840 C.3   101  LEU101      0.0311
    158  CG         2.3070   21.8950   52.9760 C.3   101  LEU101      0.0022
    159  CD1        1.8410   20.8870   51.9320 C.3   101  LEU101      0.0001
    160  CD2        3.2910   21.2390   53.9380 C.3   101  LEU101      0.0001
    161  N          3.8680   26.0870   51.7880 N.am  102  ALA102     -0.1977
    162  CA         4.6300   27.0710   51.0290 C.3   102  ALA102      0.1597
    163  C          5.5530   27.8200   51.9890 C.2   102  ALA102      0.2287
    164  O          6.7340   28.0030   51.7030 O.2   102  ALA102     -0.2864
    165  CB         3.6920   28.0470   50.3230 C.3   102  ALA102      0.0319
    166  N          0.5570   10.0320   52.6190 N.3   145  THR145     -0.1218
    167  CA         1.5310   11.0760   52.3590 C.3   145  THR145      0.1862
    168  C          2.7400   11.0680   53.2870 C.2   145  THR145      0.2287
    169  O          2.6770   10.5790   54.4150 O.2   145  THR145     -0.2866
    170  CB         0.8440   12.4460   52.4780 C.3   145  THR145      0.1770
    171  OG1       -0.2620   12.4920   51.5740 O.3   145  THR145     -0.2211
    172  CG2        1.8090   13.5800   52.1510 C.3   145  THR145      0.0375
    173  N          5.9540   13.8090   54.4180 N.3   147  LEU147     -0.1245
    174  CA         6.5380   15.1310   54.3280 C.3   147  LEU147      0.1561
    175  C          7.9240   15.0320   54.9160 C.2   147  LEU147      0.2260
    176  O          8.1110   14.4460   55.9780 O.2   147  LEU147     -0.2867
    177  CB         5.7120   16.1520   55.1050 C.3   147  LEU147      0.0270
    178  CG         4.6650   16.9240   54.3030 C.3   147  LEU147      0.0019
    179  CD1        5.3830   17.8310   53.3080 C.3   147  LEU147      0.0001
    180  CD2        3.7310   15.9650   53.5820 C.3   147  LEU147      0.0001
    181  N         -3.0480   29.8070   64.4300 N.3   309  LYS309     -0.1245
    182  CA        -4.2680   29.4450   65.1530 C.3   309  LYS309      0.1561
    183  C         -4.0330   29.2630   66.6470 C.2   309  LYS309      0.2260
    184  O         -4.6980   28.4520   67.2860 O.2   309  LYS309     -0.2867
    185  CB        -4.8960   28.1590   64.5950 C.3   309  LYS309      0.0271
    186  CG        -5.2200   28.1610   63.1060 C.3   309  LYS309      0.0035
    187  CD        -4.0860   27.5280   62.2830 C.3   309  LYS309      0.0206
    188  CE        -4.4530   27.4560   60.8000 C.3   309  LYS309      0.1093
    189  NZ        -3.5010   26.6360   59.9820 N.3   309  LYS309     -0.1314
@<TRIPOS>BOND
     1    63    64    1
     2    64    67    1
     3    64    65    1
     4    68    67    1
     5    68    69    1
     6    71    69   ar
     7    65    66    2
     8    69    70   ar
     9    81    78    1
    10    58    57    2
    11    57    56    1
    12    78    77    1
    13    78    79    1
    14    72    73    1
    15    61    59    1
    16    86    83    1
    17    56    59    1
    18    56    55    1
    19    79    80    2
    20    59    60    1
    21    73    76    1
    22    73    74    1
    23    83    82    1
    24    83    84    1
    25    55    53   am
    26    74    75    2
    27    90    89    2
    28    84    87   am
    29    84    85    2
    30    60    62    1
    31    87    88    1
    32    53    54    2
    33    53    52    1
    34    98    95    1
    35    98    99    1
    36    89    88    1
    37    89    94   am
    38    48    47    2
    39    95    94    1
    40    95    96    1
    41    52    51    1
    42    88    91    1
    43   165   162    1
    44    47    51   am
    45    47    46    1
    46    97    96    2
    47    96   100   am
    48   162   161    1
    49   162   163    1
    50   138   137    2
    51    93    91    1
    52   147   145   ar
    53    91    92    1
    54    49    50    1
    55    49    46    1
    56   171   170    1
    57   164   163    2
    58    46    45    1
    59   161   155   am
    60   100   101    1
    61   159   158    1
    62   137   136    1
    63   137   139   am
    64   172   170    1
    65   136   135    1
    66   157   158    1
    67   157   154    1
    68   167   170    1
    69   167   166    1
    70   167   168    1
    71   156   155    2
    72   155   154    1
    73   145   146   ar
    74   145   144    1
    75   127   126    2
    76   158   160    1
    77   101   102    1
    78   101   104    1
    79   102   103    2
    80   154   153    1
    81   168   169    2
    82   139   140    1
    83   179   178    1
    84   144   143    1
    85   140   141    1
    86   140   143    1
    87   135   126   am
    88   180   178    1
    89   126   125    1
    90   142   141    2
    91   153   150   am
    92   141   148   am
    93   105   104    1
    94   105   106    1
    95   178   177    1
    96   174   173    1
    97   174   175    1
    98   174   177    1
    99   116   115    2
   100   175   176    2
   101   107   106    1
   102   107   108    1
   103   125   124    1
   104   125   128    1
   105   150   151    2
   106   150   149    1
   107   148   149    1
   108    36    33    1
   109    35    34    2
   110    40    39    2
   111   115   124   am
   112   115   114    1
   113    43    42   ar
   114    33    34    1
   115    33    32    1
   116   149   152    1
   117   128   129    1
   118   114   117    1
   119   114   113    1
   120    25    23   am
   121    44    42   ar
   122    42    41    1
   123    39    38    1
   124    23    24    2
   125    23    22    1
   126    22    19    1
   127   117   118    1
   128   113   111   am
   129    37    38    1
   130    21    20    2
   131   133   132    1
   132   134   132    1
   133   112   111    2
   134    17    15    1
   135   111   110    1
   136   129   130    1
   137    38    41    1
   138   132   131    2
   139    20    19    1
   140    20    26   am
   141    19    18    1
   142   119   118   ar
   143   119   121   ar
   144    16    15    1
   145   118   120   ar
   146   131   130    1
   147   110   109    1
   148    27    26    1
   149    27    28    1
   150    27    30    1
   151    29    28    2
   152    15    14    1
   153    31    30    1
   154   121   123   ar
   155    14    11    1
   156    13    12    2
   157    11    12    1
   158    11    10    1
   159   120   122   ar
   160     4     3    2
   161   189   188    1
   162    10     3   am
   163     3     2    1
   164     8     7   ar
   165     5     6    1
   166     5     2    1
   167   123   122   ar
   168     6     7    1
   169   188   187    1
   170     7     9   ar
   171     2     1    1
   172   187   186    1
   173   186   185    1
   174   181   182    1
   175   185   182    1
   176   182   183    1
   177   183   184    2
