@<TRIPOS>MOLECULE
tmp/1b66B00.pdb
 125 119 0 0 0
SMALL
GASTEIGER

@<TRIPOS>ATOM
      1  N         71.5990   13.4730   55.3280 N.3    17  HIS17      -0.1241
      2  CA        72.3480   13.0160   54.1680 C.3    17  HIS17       0.1621
      3  C         73.8200   13.3060   54.3280 C.2    17  HIS17       0.2264
      4  O         74.2540   13.9390   55.3040 O.2    17  HIS17      -0.2867
      5  CB        71.8080   13.6610   52.8640 C.3    17  HIS17       0.0745
      6  CG        72.1260   15.1220   52.7150 C.ar   17  HIS17       0.0817
      7  ND1       72.3560   15.7420   51.5040 N.ar   17  HIS17      -0.2268
      8  CD2       72.3030   16.0830   53.6560 C.ar   17  HIS17       0.1154
      9  CE1       72.6700   17.0130   51.7380 C.ar   17  HIS17       0.1986
     10  NE2       72.6470   17.2590   53.0290 N.ar   17  HIS17      -0.2212
     11  N         76.9690   14.4610   51.6290 N.3    19  LEU19      -0.1245
     12  CA        77.3200   14.8190   50.2510 C.3    19  LEU19       0.1561
     13  C         78.6150   14.0600   49.9690 C.2    19  LEU19       0.2260
     14  O         79.6800   14.3270   50.5570 O.2    19  LEU19      -0.2867
     15  CB        77.5010   16.3300   50.0790 C.3    19  LEU19       0.0270
     16  CG        76.2150   17.1750   50.1510 C.3    19  LEU19       0.0019
     17  CD1       76.5300   18.6140   49.8130 C.3    19  LEU19       0.0001
     18  CD2       75.1840   16.6520   49.1890 C.3    19  LEU19       0.0001
     19  N         85.7670   19.1840   47.6280 N.3    32  VAL32      -0.1231
     20  CA        84.5050   19.5770   47.0070 C.3    32  VAL32       0.1692
     21  C         83.3590   19.8140   48.0080 C.2    32  VAL32       0.2592
     22  O         82.7660   20.8970   48.0310 O.2    32  VAL32      -0.2718
     23  CB        84.0240   18.4960   45.9570 C.3    32  VAL32       0.0266
     24  CG1       82.6180   18.8340   45.4480 C.3    32  VAL32       0.0020
     25  CG2       85.0020   18.3930   44.7820 C.3    32  VAL32       0.0020
     26  N         83.0680   18.7980   48.8260 N.am   33  PHE33      -0.1976
     27  CA        81.9550   18.8430   49.7620 C.3    33  PHE33       0.1639
     28  C         82.1790   19.3930   51.1660 C.2    33  PHE33       0.2290
     29  O         81.1980   19.6210   51.9040 O.2    33  PHE33      -0.2864
     30  CB        81.2820   17.4780   49.8120 C.3    33  PHE33       0.0560
     31  CG        80.7770   17.0180   48.4840 C.ar   33  PHE33      -0.0200
     32  CD1       79.7570   17.7150   47.8310 C.ar   33  PHE33      -0.0042
     33  CD2       81.3150   15.8980   47.8690 C.ar   33  PHE33      -0.0042
     34  CE1       79.2810   17.2930   46.5840 C.ar   33  PHE33      -0.0003
     35  CE2       80.8440   15.4740   46.6230 C.ar   33  PHE33      -0.0003
     36  CZ        79.8310   16.1720   45.9840 C.ar   33  PHE33      -0.0000
     37  N         82.5400   20.3750   54.9030 N.3    35  LYS35      -0.1231
     38  CA        81.8310   19.9330   56.1100 C.3    35  LYS35       0.1693
     39  C         80.6110   19.0350   55.8340 C.2    35  LYS35       0.2592
     40  O         80.2610   18.1970   56.6670 O.2    35  LYS35      -0.2718
     41  CB        81.4470   21.1520   56.9740 C.3    35  LYS35       0.0285
     42  CG        80.4380   22.0740   56.3030 C.3    35  LYS35       0.0035
     43  CD        80.2600   23.4040   57.0210 C.3    35  LYS35       0.0206
     44  CE        79.4170   24.3490   56.1510 C.3    35  LYS35       0.1093
     45  NZ        79.0880   25.6460   56.8120 N.3    35  LYS35      -0.1314
     46  N         79.9930   19.1790   54.6560 N.am   36  CYS36      -0.1970
     47  CA        78.8260   18.3680   54.2830 C.3    36  CYS36       0.1712
     48  C         79.2330   16.9230   53.9600 C.2    36  CYS36       0.2296
     49  O         78.3760   16.0490   53.7440 O.2    36  CYS36      -0.2864
     50  CB        78.1070   18.9820   53.1060 C.3    36  CYS36       0.0983
     51  SG        77.3120   20.5710   53.4870 S.3    36  CYS36      -0.0798
     52  N         74.6460   14.5190   58.3700 N.3    42  HIS42      -0.1241
     53  CA        74.1070   15.7050   59.0220 C.3    42  HIS42       0.1621
     54  C         72.7000   15.8530   58.4360 C.2    42  HIS42       0.2264
     55  O         72.2650   15.0040   57.6600 O.2    42  HIS42      -0.2867
     56  CB        74.9410   16.9480   58.7310 C.3    42  HIS42       0.0745
     57  CG        75.0760   17.2480   57.2730 C.ar   42  HIS42       0.0817
     58  ND1       75.9800   16.6140   56.4450 N.ar   42  HIS42      -0.2268
     59  CD2       74.3950   18.1160   56.4850 C.ar   42  HIS42       0.1154
     60  CE1       75.8290   17.0900   55.2130 C.ar   42  HIS42       0.1986
     61  NE2       74.8860   18.0020   55.1870 N.ar   42  HIS42      -0.2212
     62  N         68.8250   18.4910   57.7040 N.3    44  HIS44      -0.1241
     63  CA        68.1430   19.7620   57.5220 C.3    44  HIS44       0.1621
     64  C         66.6790   19.6220   57.6320 C.2    44  HIS44       0.2264
     65  O         66.1400   18.5360   57.4800 O.2    44  HIS44      -0.2867
     66  CB        68.3400   20.3090   56.1090 C.3    44  HIS44       0.0745
     67  CG        69.7540   20.3620   55.6860 C.ar   44  HIS44       0.0817
     68  ND1       70.6410   21.3380   56.0860 N.ar   44  HIS44      -0.2268
     69  CD2       70.4600   19.5010   54.9170 C.ar   44  HIS44       0.1154
     70  CE1       71.8210   21.0570   55.5660 C.ar   44  HIS44       0.1986
     71  NE2       71.7380   19.9550   54.8590 N.ar   44  HIS44      -0.2212
     72  N         72.6410   16.8670   46.6490 N.3    99  THR99      -0.1203
     73  CA        72.7240   18.3080   46.7850 C.3    99  THR99       0.1994
     74  C         71.2840   18.8460   46.7290 C.2    99  THR99       0.2619
     75  O         70.3610   18.1190   46.3880 O.2    99  THR99      -0.2717
     76  CB        73.4410   18.8930   45.5970 C.3    99  THR99       0.1784
     77  OG1       72.8920   18.2970   44.4140 O.3    99  THR99      -0.2211
     78  CG2       74.9300   18.6040   45.6660 C.3    99  THR99       0.0376
     79  N         71.0930   20.1220   47.0400 N.am  100  THR100     -0.1938
     80  CA        69.7660   20.7570   46.9990 C.3   100  THR100      0.2028
     81  C         69.2460   20.6900   45.5610 C.2   100  THR100      0.2642
     82  O         68.0580   20.4740   45.3300 O.2   100  THR100     -0.2714
     83  CB        69.8670   22.2360   47.4690 C.3   100  THR100      0.1808
     84  OG1       70.6290   22.2900   48.6830 O.3   100  THR100     -0.2208
     85  CG2       68.4940   22.8630   47.7170 C.3   100  THR100      0.0379
     86  N         70.1630   20.8060   44.6000 N.am  101  GLU101     -0.1976
     87  CA        69.8040   20.7510   43.1840 C.3   101  GLU101      0.1602
     88  C         69.1290   19.4140   42.8320 C.2   101  GLU101      0.2287
     89  O         68.0590   19.3980   42.2290 O.2   101  GLU101     -0.2864
     90  CB        71.0470   20.9460   42.3010 C.3   101  GLU101      0.0415
     91  CG        71.6030   22.3540   42.2450 C.3   101  GLU101      0.1163
     92  CD        72.6880   22.6080   43.2700 C.2   101  GLU101      0.3649
     93  OE1       72.5830   22.0710   44.3890 O.co2 101  GLU101     -0.2457
     94  OE2       73.6320   23.3630   42.9730 O.co2 101  GLU101     -0.2457
     95  N         67.2930   24.3550   51.4590 N.3   127  GLU127     -0.1231
     96  CA        68.0160   23.3440   52.2340 C.3   127  GLU127      0.1699
     97  C         68.1640   23.9660   53.6160 C.2   127  GLU127      0.2592
     98  O         68.0510   23.2790   54.6390 O.2   127  GLU127     -0.2718
     99  CB        69.3790   23.0640   51.6200 C.3   127  GLU127      0.0402
    100  CG        70.1360   21.9490   52.3020 C.3   127  GLU127      0.1161
    101  CD        71.5110   21.7250   51.7060 C.2   127  GLU127      0.3649
    102  OE1       72.3200   22.6820   51.7010 O.co2 127  GLU127     -0.2457
    103  OE2       71.7820   20.5910   51.2430 O.co2 127  GLU127     -0.2457
    104  N         68.4310   25.2690   53.6180 N.am  128  THR128     -0.1953
    105  CA        68.5140   26.0950   54.8210 C.3   128  THR128      0.1897
    106  C         67.8730   27.4240   54.3630 C.2   128  THR128      0.2313
    107  O         67.4770   27.5560   53.1910 O.2   128  THR128     -0.2863
    108  CB        69.9580   26.3460   55.2990 C.3   128  THR128      0.1794
    109  OG1       70.6330   27.2080   54.3770 O.3   128  THR128     -0.2208
    110  CG2       70.7370   25.0450   55.4420 C.3   128  THR128      0.0378
    111  N         70.3960   28.6800   51.5770 N.3   131  ASN131     -0.1240
    112  CA        70.7360   27.8980   50.3810 C.3   131  ASN131      0.1653
    113  C         69.4630   27.4340   49.7280 C.2   131  ASN131      0.2266
    114  O         68.7690   26.5760   50.2710 O.2   131  ASN131     -0.2867
    115  CB        71.5870   26.7110   50.7680 C.3   131  ASN131      0.1155
    116  CG        72.8640   27.1330   51.4440 C.2   131  ASN131      0.2627
    117  OD1       73.4680   28.1640   51.0840 O.2   131  ASN131     -0.2716
    118  ND2       73.2890   26.3590   52.4400 N.am  131  ASN131     -0.0877
    119  N         67.3950   26.3630   45.8620 N.3   133  VAL133     -0.1245
    120  CA        67.4570   25.9330   44.4610 C.3   133  VAL133      0.1561
    121  C         66.0640   26.0120   43.8240 C.2   133  VAL133      0.2260
    122  O         65.0620   25.6410   44.4400 O.2   133  VAL133     -0.2867
    123  CB        67.9900   24.4740   44.2690 C.3   133  VAL133      0.0252
    124  CG1       67.7190   23.9860   42.8530 C.3   133  VAL133      0.0019
    125  CG2       69.4860   24.3890   44.5500 C.3   133  VAL133      0.0019
@<TRIPOS>BOND
     1    89    88    2
     2    91    90    1
     3    91    92    1
     4    90    87    1
     5    88    87    1
     6   124   123    1
     7    94    92   ar
     8    87    86    1
     9    92    93   ar
    10   121   122    2
    11   121   120    1
    12   123   120    1
    13   123   125    1
    14    77    76    1
    15   120   119    1
    16    86    81   am
    17    25    23    1
    18    82    81    2
    19    24    23    1
    20    81    80    1
    21    76    78    1
    22    76    73    1
    23    23    20    1
    24    36    34   ar
    25    36    35   ar
    26    75    74    2
    27    34    32   ar
    28    35    33   ar
    29    72    73    1
    30    74    73    1
    31    74    79   am
    32    80    79    1
    33    80    83    1
    34    20    19    1
    35    20    21    1
    36    83    85    1
    37    83    84    1
    38    32    31   ar
    39    33    31   ar
    40    21    22    2
    41    21    26   am
    42    31    30    1
    43    26    27    1
    44    18    16    1
    45   113   114    2
    46   113   112    1
    47    27    30    1
    48    27    28    1
    49    17    16    1
    50    13    12    1
    51    13    14    2
    52    15    16    1
    53    15    12    1
    54    12    11    1
    55   112   115    1
    56   112   111    1
    57   115   116    1
    58   117   116    2
    59    28    29    2
    60   103   101   ar
    61   116   118   am
    62    95    96    1
    63     7     9   ar
    64     7     6   ar
    65    99    96    1
    66    99   100    1
    67   102   101   ar
    68   101   100    1
    69     9    10   ar
    70    96    97    1
    71     6     5    1
    72     6     8   ar
    73     5     2    1
    74    10     8   ar
    75    50    51    1
    76    50    47    1
    77   107   106    2
    78    97   104   am
    79    97    98    2
    80   104   105    1
    81    49    48    2
    82    48    47    1
    83     2     3    1
    84     2     1    1
    85    47    46    1
    86     3     4    2
    87   106   105    1
    88   109   108    1
    89    46    39   am
    90   105   108    1
    91    71    69   ar
    92    71    70   ar
    93    37    38    1
    94    69    67   ar
    95    61    60   ar
    96    61    59   ar
    97    60    58   ar
    98   108   110    1
    99    70    68   ar
   100    67    68   ar
   101    67    66    1
   102    39    38    1
   103    39    40    2
   104    66    63    1
   105    38    41    1
   106    44    45    1
   107    44    43    1
   108    42    41    1
   109    42    43    1
   110    58    57   ar
   111    59    57   ar
   112    57    56    1
   113    65    64    2
   114    63    64    1
   115    63    62    1
   116    55    54    2
   117    52    53    1
   118    54    53    1
   119    56    53    1
