@<TRIPOS>MOLECULE
tmp/1b6aA00.pdb
 195 188 0 0 0
SMALL
GASTEIGER

@<TRIPOS>ATOM
      1  N         23.3920   31.1670    9.6770 N.3    96  PHE96      -0.1241
      2  CA        23.4070   31.9600   10.9070 C.3    96  PHE96       0.1605
      3  C         24.8060   31.8820   11.5020 C.2    96  PHE96       0.2264
      4  O         25.6350   31.0610   11.0820 O.2    96  PHE96      -0.2867
      5  CB        22.3710   31.4470   11.9050 C.3    96  PHE96       0.0534
      6  CG        22.4270   29.9930   12.2810 C.ar   96  PHE96      -0.0203
      7  CD1       23.2570   29.5360   13.2860 C.ar   96  PHE96      -0.0042
      8  CD2       21.6210   29.0760   11.5990 C.ar   96  PHE96      -0.0042
      9  CE1       23.3060   28.1880   13.6080 C.ar   96  PHE96      -0.0003
     10  CE2       21.6600   27.7320   11.9420 C.ar   96  PHE96      -0.0003
     11  CZ        22.5030   27.2890   12.9320 C.ar   96  PHE96      -0.0000
     12  N         23.7440   29.0630   24.5250 N.3   107  ALA107     -0.1231
     13  CA        23.3920   29.3930   23.1600 C.3   107  ALA107      0.1694
     14  C         23.5920   30.8770   22.8820 C.2   107  ALA107      0.2592
     15  O         23.5770   31.7470   23.7560 O.2   107  ALA107     -0.2718
     16  CB        21.9180   29.0300   22.9310 C.3   107  ALA107      0.0304
     17  N         23.7710   31.1500   21.5830 N.am  108  HIS108     -0.1976
     18  CA        23.7680   32.5200   21.0550 C.3   108  HIS108      0.1656
     19  C         24.9280   33.3950   21.4920 C.2   108  HIS108      0.2291
     20  O         24.8270   34.6210   21.3610 O.2   108  HIS108     -0.2864
     21  CB        22.4450   33.2340   21.3180 C.3   108  HIS108      0.0771
     22  CG        21.2970   32.5530   20.6280 C.ar  108  HIS108      0.0820
     23  ND1       20.0050   32.9040   20.9000 N.ar  108  HIS108     -0.2267
     24  CD2       21.2480   31.5510   19.7260 C.ar  108  HIS108      0.1154
     25  CE1       19.1880   32.1720   20.1570 C.ar  108  HIS108      0.1986
     26  NE2       19.9070   31.3140   19.4730 N.ar  108  HIS108     -0.2212
     27  N         27.6010   25.5050   17.2780 N.3   128  ASP128     -0.1239
     28  CA        26.2870   25.4800   16.6090 C.3   128  ASP128      0.1674
     29  C         26.3990   26.3590   15.3710 C.2   128  ASP128      0.2266
     30  O         26.5770   27.5570   15.4690 O.2   128  ASP128     -0.2867
     31  CB        25.2060   25.9740   17.5770 C.3   128  ASP128      0.1410
     32  CG        23.8000   25.7690   17.0560 C.2   128  ASP128      0.3668
     33  OD1       23.6240   25.6050   15.8270 O.co2 128  ASP128     -0.2456
     34  OD2       22.8230   25.7400   17.8280 O.co2 128  ASP128     -0.2456
     35  N         20.4680   23.2460   10.6920 N.3   139  ASP139     -0.1239
     36  CA        20.8830   23.6890   12.0270 C.3   139  ASP139      0.1674
     37  C         21.3460   22.4140   12.7370 C.2   139  ASP139      0.2266
     38  O         20.5450   21.5090   12.9450 O.2   139  ASP139     -0.2867
     39  CB        19.7250   24.3430   12.7730 C.3   139  ASP139      0.1410
     40  CG        20.1300   25.0530   14.0500 C.2   139  ASP139      0.3668
     41  OD1       21.2780   24.8630   14.4820 O.co2 139  ASP139     -0.2456
     42  OD2       19.2830   25.7750   14.6280 O.co2 139  ASP139     -0.2456
     43  N         13.5610   26.3530   29.4230 N.3   204  ASN204     -0.1225
     44  CA        13.1430   27.4360   28.5510 C.3   204  ASN204      0.1785
     45  C         13.9760   27.5480   27.2870 C.2   204  ASN204      0.2597
     46  O         14.0310   28.6030   26.6500 O.2   204  ASN204     -0.2718
     47  CB        13.0980   28.7770   29.2800 C.3   204  ASN204      0.1169
     48  CG        14.4140   29.2560   29.8510 C.2   204  ASN204      0.2627
     49  OD1       15.3110   28.4720   30.1240 O.2   204  ASN204     -0.2716
     50  ND2       14.5300   30.5610   30.0770 N.am  204  ASN204     -0.0877
     51  N         14.5890   26.4480   26.8660 N.am  205  LEU205     -0.1966
     52  CA        15.1640   26.3230   25.5410 C.3   205  LEU205      0.1728
     53  C         14.4300   25.1920   24.8090 C.2   205  LEU205      0.2616
     54  O         13.7830   24.3170   25.4000 O.2   205  LEU205     -0.2715
     55  CB        16.6600   26.0460   25.5520 C.3   205  LEU205      0.0311
     56  CG        17.5430   27.1910   26.0580 C.3   205  LEU205      0.0022
     57  CD1       18.9880   26.7000   26.0660 C.3   205  LEU205      0.0001
     58  CD2       17.4170   28.4560   25.2050 C.3   205  LEU205      0.0001
     59  N         14.3820   25.3460   23.4910 N.am  206  ASN206     -0.1958
     60  CA        13.5110   24.5150   22.6660 C.3   206  ASN206      0.1819
     61  C         14.1580   24.2490   21.3160 C.2   206  ASN206      0.2622
     62  O         14.9730   25.0440   20.8200 O.2   206  ASN206     -0.2715
     63  CB        12.1830   25.2270   22.3750 C.3   206  ASN206      0.1195
     64  CG        11.3970   25.7500   23.5380 C.2   206  ASN206      0.2630
     65  OD1       11.4830   26.9380   23.8550 O.2   206  ASN206     -0.2716
     66  ND2       10.6940   24.8780   24.2420 N.am  206  ASN206     -0.0877
     67  N         13.7490   23.1690   20.6770 N.am  207  GLY207     -0.1940
     68  CA        13.9070   22.9980   19.2450 C.3   207  GLY207      0.2014
     69  C         12.7780   23.7690   18.5210 C.2   207  GLY207      0.2638
     70  O         11.9760   24.4590   19.1140 O.2   207  GLY207     -0.2714
     71  N         12.8200   23.6310   17.1920 N.am  208  HIS208     -0.1973
     72  CA        11.9720   24.5450   16.4050 C.3   208  HIS208      0.1656
     73  C         11.8060   24.0370   14.9900 C.2   208  HIS208      0.2291
     74  O         12.6990   23.3900   14.4380 O.2   208  HIS208     -0.2864
     75  CB        12.5700   25.9580   16.3910 C.3   208  HIS208      0.0771
     76  CG        13.9960   25.9960   15.9730 C.ar  208  HIS208      0.0820
     77  ND1       14.3800   26.2610   14.6680 N.ar  208  HIS208     -0.2267
     78  CD2       15.1330   25.7630   16.6850 C.ar  208  HIS208      0.1154
     79  CE1       15.7000   26.1900   14.6160 C.ar  208  HIS208      0.1986
     80  NE2       16.1810   25.8950   15.7990 N.ar  208  HIS208     -0.2212
     81  N         14.8620   30.4000   10.0230 N.3   215  ILE215     -0.1231
     82  CA        15.4460   29.4650   10.9760 C.3   215  ILE215      0.1692
     83  C         14.4360   29.0310   12.0200 C.2   215  ILE215      0.2592
     84  O         14.5100   27.8510   12.4240 O.2   215  ILE215     -0.2718
     85  CB        16.7070   30.0570   11.6220 C.3   215  ILE215      0.0266
     86  CG1       17.3790   29.0530   12.5680 C.3   215  ILE215      0.0019
     87  CG2       16.4270   31.3150   12.4340 C.3   215  ILE215      0.0020
     88  CD1       17.9690   27.8290   11.9090 C.3   215  ILE215      0.0001
     89  N         13.5020   29.8780   12.4210 N.am  216  HIS216     -0.1976
     90  CA        12.4690   29.4840   13.3570 C.3   216  HIS216      0.1656
     91  C         11.1270   29.7630   12.6740 C.2   216  HIS216      0.2291
     92  O         10.7300   30.9160   12.6520 O.2   216  HIS216     -0.2864
     93  CB        12.6270   30.3040   14.6400 C.3   216  HIS216      0.0771
     94  CG        11.7550   29.7990   15.7480 C.ar  216  HIS216      0.0820
     95  ND1       10.5340   29.1850   15.5400 N.ar  216  HIS216     -0.2267
     96  CD2       11.9390   29.8650   17.0920 C.ar  216  HIS216      0.1154
     97  CE1       10.0210   28.8650   16.7200 C.ar  216  HIS216      0.1986
     98  NE2       10.8320   29.2830   17.6730 N.ar  216  HIS216     -0.2212
     99  N          7.4760   25.1780   18.2020 N.3   220  THR220     -0.1218
    100  CA         8.6020   24.9020   19.1060 C.3   220  THR220      0.1862
    101  C          8.5340   23.4640   19.5880 C.2   220  THR220      0.2287
    102  O          7.4510   22.8850   19.7310 O.2   220  THR220     -0.2866
    103  CB         8.6830   25.9030   20.2630 C.3   220  THR220      0.1770
    104  OG1        7.5070   25.8240   21.0600 O.3   220  THR220     -0.2211
    105  CG2        8.8060   27.3350   19.7450 C.3   220  THR220      0.0375
    106  N         16.7930   19.7470   19.0360 N.3   241  GLU241     -0.1245
    107  CA        17.9850   20.1090   19.8260 C.3   241  GLU241      0.1567
    108  C         17.6320   19.9320   21.2800 C.2   241  GLU241      0.2260
    109  O         16.4880   20.1830   21.6910 O.2   241  GLU241     -0.2867
    110  CB        18.4190   21.5330   19.5590 C.3   241  GLU241      0.0388
    111  CG        17.4450   22.6610   19.7640 C.3   241  GLU241      0.1160
    112  CD        18.0410   23.9470   19.2110 C.2   241  GLU241      0.3649
    113  OE1       19.2250   24.2360   19.5110 O.co2 241  GLU241     -0.2457
    114  OE2       17.3820   24.6850   18.4580 O.co2 241  GLU241     -0.2457
    115  N         19.3410   20.5370   25.3570 N.3   243  PHE243     -0.1241
    116  CA        20.3240   21.2070   26.1840 C.3   243  PHE243      0.1605
    117  C         20.2010   20.6470   27.6000 C.2   243  PHE243      0.2264
    118  O         19.0950   20.5810   28.1250 O.2   243  PHE243     -0.2867
    119  CB        20.0940   22.7240   26.2480 C.3   243  PHE243      0.0534
    120  CG        20.1920   23.5000   24.9700 C.ar  243  PHE243     -0.0203
    121  CD1       19.1090   23.6200   24.1110 C.ar  243  PHE243     -0.0042
    122  CD2       21.3900   24.1220   24.6400 C.ar  243  PHE243     -0.0042
    123  CE1       19.2160   24.3520   22.9420 C.ar  243  PHE243     -0.0003
    124  CE2       21.4910   24.8470   23.4600 C.ar  243  PHE243     -0.0003
    125  CZ        20.4110   24.9580   22.6130 C.ar  243  PHE243     -0.0000
    126  N         17.7210   29.4390   31.4820 N.3   251  VAL251     -0.1245
    127  CA        18.6590   30.4370   30.9870 C.3   251  VAL251      0.1561
    128  C         18.0440   31.8350   31.0650 C.2   251  VAL251      0.2260
    129  O         16.8310   32.0060   31.1120 O.2   251  VAL251     -0.2867
    130  CB        19.1360   30.2070   29.5440 C.3   251  VAL251      0.0252
    131  CG1       20.0370   28.9720   29.5170 C.3   251  VAL251      0.0019
    132  CG2       17.9640   29.9840   28.6050 C.3   251  VAL251      0.0019
    133  N         19.1060   36.1040   29.6360 N.3   253  ASP253     -0.1239
    134  CA        19.9840   36.8660   28.7670 C.3   253  ASP253      0.1674
    135  C         21.2030   37.4040   29.5140 C.2   253  ASP253      0.2266
    136  O         21.0740   37.9410   30.6270 O.2   253  ASP253     -0.2867
    137  CB        19.2690   38.0870   28.1970 C.3   253  ASP253      0.1410
    138  CG        18.0380   37.7940   27.3930 C.2   253  ASP253      0.3668
    139  OD1       17.8550   36.6430   26.9460 O.co2 253  ASP253     -0.2456
    140  OD2       17.2530   38.7540   27.1690 O.co2 253  ASP253     -0.2456
    141  N         24.3160   38.3300   18.1140 N.3   259  HIS259     -0.1226
    142  CA        23.4140   37.7820   17.1140 C.3   259  HIS259      0.1752
    143  C         22.1540   38.6100   16.9020 C.2   259  HIS259      0.2596
    144  O         21.6070   39.1740   17.8640 O.2   259  HIS259     -0.2718
    145  CB        22.8940   36.4400   17.6190 C.3   259  HIS259      0.0759
    146  CG        23.8250   35.2880   17.5920 C.ar  259  HIS259      0.0818
    147  ND1       25.0670   35.2880   18.1930 N.ar  259  HIS259     -0.2268
    148  CD2       23.6420   34.0470   17.0760 C.ar  259  HIS259      0.1154
    149  CE1       25.6230   34.0860   18.0140 C.ar  259  HIS259      0.1986
    150  NE2       24.7780   33.3150   17.3450 N.ar  259  HIS259     -0.2212
    151  N         21.8110   38.8760   15.6290 N.am  260  TYR260     -0.1962
    152  CA        20.6660   39.7140   15.2730 C.3   260  TYR260      0.1771
    153  C         19.9560   39.0860   14.0870 C.2   260  TYR260      0.2619
    154  O         20.5750   38.3330   13.3370 O.2   260  TYR260     -0.2715
    155  CB        21.1260   41.1360   14.8280 C.3   260  TYR260      0.0574
    156  CG        21.8690   41.8560   15.9430 C.ar  260  TYR260     -0.0198
    157  CD1       23.2460   41.6200   16.1110 C.ar  260  TYR260     -0.0009
    158  CD2       21.2120   42.7200   16.7860 C.ar  260  TYR260     -0.0009
    159  CE1       23.9210   42.2000   17.1740 C.ar  260  TYR260      0.0417
    160  CE2       21.9080   43.3240   17.8390 C.ar  260  TYR260      0.0417
    161  CZ        23.2440   43.0610   17.9920 C.ar  260  TYR260      0.1957
    162  OH        23.9090   43.6830   19.0380 O.3   260  TYR260     -0.2866
    163  N         18.6780   39.3780   13.8500 N.am  261  MET261     -0.1977
    164  CA        18.0180   38.8270   12.6620 C.3   261  MET261      0.1605
    165  C         16.7930   39.6940   12.3730 C.2   261  MET261      0.2287
    166  O         16.0560   40.0510   13.2940 O.2   261  MET261     -0.2864
    167  CB        17.5520   37.3840   12.9990 C.3   261  MET261      0.0413
    168  CG        16.9630   36.6630   11.7790 C.3   261  MET261      0.0598
    169  SD        16.7430   34.8770   12.0650 S.3   261  MET261     -0.1393
    170  CE        15.5510   34.9100   13.3910 C.3   261  MET261      0.0692
    171  N         19.8810   35.0700   10.0500 N.3   291  ALA291     -0.1245
    172  CA        20.5390   35.7480   11.1760 C.3   291  ALA291      0.1562
    173  C         21.9510   36.1450   10.7640 C.2   291  ALA291      0.2260
    174  O         22.5940   35.5590    9.8820 O.2   291  ALA291     -0.2867
    175  CB        20.5880   34.8430   12.3870 C.3   291  ALA291      0.0290
    176  N         19.3510   38.8250   19.6710 N.3   321  TYR321     -0.1241
    177  CA        19.2980   37.5040   20.3160 C.3   321  TYR321      0.1605
    178  C         20.5380   37.3510   21.1810 C.2   321  TYR321      0.2264
    179  O         21.5310   36.7810   20.7530 O.2   321  TYR321     -0.2867
    180  CB        19.3320   36.4300   19.2070 C.3   321  TYR321      0.0534
    181  CG        17.9830   36.3250   18.5040 C.ar  321  TYR321     -0.0201
    182  CD1       17.7730   37.1620   17.4130 C.ar  321  TYR321     -0.0009
    183  CD2       16.9810   35.4550   18.9050 C.ar  321  TYR321     -0.0009
    184  CE1       16.5640   37.1500   16.7290 C.ar  321  TYR321      0.0417
    185  CE2       15.7690   35.4450   18.2210 C.ar  321  TYR321      0.0417
    186  CZ        15.5920   36.2810   17.1480 C.ar  321  TYR321      0.1957
    187  OH        14.3840   36.2770   16.4570 O.3   321  TYR321     -0.2866
    188  N         22.3790   33.1990   25.9350 N.3   324  LEU324     -0.1245
    189  CA        21.4500   32.6150   26.8970 C.3   324  LEU324      0.1561
    190  C         22.2000   31.6960   27.8650 C.2   324  LEU324      0.2260
    191  O         22.8270   30.7270   27.4240 O.2   324  LEU324     -0.2867
    192  CB        20.3840   31.8130   26.1470 C.3   324  LEU324      0.0270
    193  CG        19.5790   32.6780   25.1450 C.3   324  LEU324      0.0019
    194  CD1       18.6500   31.8120   24.3310 C.3   324  LEU324      0.0001
    195  CD2       18.8440   33.7710   25.9170 C.3   324  LEU324      0.0001
@<TRIPOS>BOND
     1     1     2    1
     2   174   173    2
     3    81    82    1
     4   171   172    1
     5    35    36    1
     6   173   172    1
     7     2     3    1
     8     2     5    1
     9    82    85    1
    10    82    83    1
    11     4     3    2
    12   172   175    1
    13     8    10   ar
    14     8     6   ar
    15    85    87    1
    16    85    86    1
    17   168   169    1
    18   168   167    1
    19     5     6    1
    20    88    86    1
    21    10    11   ar
    22    83    89   am
    23    83    84    2
    24    36    37    1
    25    36    39    1
    26   169   170    1
    27     6     7   ar
    28   165   164    1
    29   165   166    2
    30    89    90    1
    31    92    91    2
    32   164   167    1
    33   164   163    1
    34    91    90    1
    35    37    38    2
    36    39    40    1
    37    11     9   ar
    38     7     9   ar
    39   154   153    2
    40    90    93    1
    41   163   153   am
    42    40    41   ar
    43    40    42   ar
    44   153   152    1
    45    74    73    2
    46    79    77   ar
    47    79    80   ar
    48    93    94    1
    49    77    76   ar
    50   155   152    1
    51   155   156    1
    52    73    72    1
    53   152   151    1
    54    29    30    2
    55    29    28    1
    56    95    94   ar
    57    95    97   ar
    58   151   143   am
    59    94    96   ar
    60    80    78   ar
    61    33    32   ar
    62   156   157   ar
    63   156   158   ar
    64    76    75    1
    65    76    78   ar
    66   157   159   ar
    67    75    72    1
    68    72    71    1
    69   187   186    1
    70    28    27    1
    71    28    31    1
    72    97    98   ar
    73   184   186   ar
    74   184   182   ar
    75   158   160   ar
    76   143   142    1
    77   143   144    2
    78    32    31    1
    79    32    34   ar
    80   148   150   ar
    81   148   146   ar
    82    96    98   ar
    83   142   145    1
    84   142   141    1
    85   186   185   ar
    86   159   161   ar
    87    71    69   am
    88   150   149   ar
    89   182   181   ar
    90   146   145    1
    91   146   147   ar
    92   160   161   ar
    93   161   162    1
    94   149   147   ar
    95    99   100    1
    96   185   183   ar
    97   114   112   ar
    98   181   183   ar
    99   181   180    1
   100    69    70    2
   101    69    68    1
   102   106   107    1
   103   100   101    1
   104   100   103    1
   105   180   177    1
   106   112   113   ar
   107   112   111    1
   108    68    67    1
   109    26    24   ar
   110    26    25   ar
   111   110   111    1
   112   110   107    1
   113   101   102    2
   114   176   177    1
   115    24    22   ar
   116   105   103    1
   117   107   108    1
   118    25    23   ar
   119   103   104    1
   120   177   178    1
   121    22    23   ar
   122    22    21    1
   123    67    61   am
   124   179   178    2
   125    62    61    2
   126    18    21    1
   127    18    19    1
   128    18    17    1
   129   108   109    2
   130    61    60    1
   131    20    19    2
   132    17    14   am
   133    63    60    1
   134    63    64    1
   135   125   123   ar
   136   125   124   ar
   137    60    59    1
   138    14    13    1
   139    14    15    2
   140    16    13    1
   141   123   121   ar
   142    13    12    1
   143   124   122   ar
   144    59    53   am
   145    64    65    2
   146    64    66   am
   147   121   120   ar
   148   194   193    1
   149   122   120   ar
   150    53    54    2
   151    53    52    1
   152   120   119    1
   153   193   195    1
   154   193   192    1
   155    58    56    1
   156   115   116    1
   157    52    55    1
   158    52    51    1
   159    55    56    1
   160   188   189    1
   161    56    57    1
   162   192   189    1
   163   116   119    1
   164   116   117    1
   165    46    45    2
   166    51    45   am
   167   189   190    1
   168   139   138   ar
   169   140   138   ar
   170    45    44    1
   171   138   137    1
   172   191   190    2
   173   117   118    2
   174   137   134    1
   175    44    47    1
   176    44    43    1
   177   132   130    1
   178   134   135    1
   179   134   133    1
   180    47    48    1
   181   135   136    2
   182   131   130    1
   183   130   127    1
   184    48    50   am
   185    48    49    2
   186   127   128    1
   187   127   126    1
   188   128   129    2
