@<TRIPOS>MOLECULE
tmp/1b6kA00.pdb
 105 98 0 0 0
SMALL
GASTEIGER

@<TRIPOS>ATOM
      1  N          4.0280   -5.1270   28.0120 N.3     8  ARG8       -0.1245
      2  CA         3.4130   -4.4050   26.8800 C.3     8  ARG8        0.1563
      3  C          2.2980   -3.5090   27.4140 C.2     8  ARG8        0.2260
      4  O          1.4870   -3.9360   28.2440 O.2     8  ARG8       -0.2867
      5  CB         2.8200   -5.3750   25.8550 C.3     8  ARG8        0.0307
      6  CG         3.8330   -6.1560   25.0550 C.3     8  ARG8        0.0489
      7  CD         3.1410   -6.9440   23.9640 C.3     8  ARG8        0.2205
      8  NE         4.0640   -7.8420   23.2500 N.pl3   8  ARG8       -0.0865
      9  CZ         3.7070   -8.6320   22.2400 C.cat   8  ARG8        0.5346
     10  NH1        2.4520   -8.6390   21.8100 N.pl3   8  ARG8        0.1354
     11  NH2        4.5980   -9.4390   21.6760 N.pl3   8  ARG8        0.1354
     12  N         -2.9230   -2.0130   22.1530 N.3    23  LEU23      -0.1245
     13  CA        -1.5630   -1.6010   22.5260 C.3    23  LEU23       0.1561
     14  C         -1.3430   -0.1050   22.2840 C.2    23  LEU23       0.2260
     15  O         -1.6030    0.3880   21.1880 O.2    23  LEU23      -0.2867
     16  CB        -0.5590   -2.3910   21.6850 C.3    23  LEU23       0.0270
     17  CG         0.9440   -2.2440   21.9220 C.3    23  LEU23       0.0019
     18  CD1        1.3420   -2.9130   23.2390 C.3    23  LEU23       0.0001
     19  CD2        1.6800   -2.8830   20.7580 C.3    23  LEU23       0.0001
     20  N          0.7420    2.5100   21.2460 N.3    25  ASP25      -0.1239
     21  CA         1.9330    2.5140   20.4010 C.3    25  ASP25       0.1674
     22  C          2.3640    3.8960   19.9380 C.2    25  ASP25       0.2266
     23  O          1.8060    4.4380   18.9850 O.2    25  ASP25      -0.2867
     24  CB         1.6120    1.6260   19.1910 C.3    25  ASP25       0.1410
     25  CG         2.8300    1.2460   18.3780 C.2    25  ASP25       0.3668
     26  OD1        3.8700    1.9240   18.4420 O.co2  25  ASP25      -0.2456
     27  OD2        2.7310    0.2470   17.6440 O.co2  25  ASP25      -0.2456
     28  N          4.9680    4.5220   18.4060 N.3    27  GLY27      -0.1210
     29  CA         5.6960    4.3910   17.1570 C.3    27  GLY27       0.1956
     30  C          4.7700    4.2590   15.9640 C.2    27  GLY27       0.2612
     31  O          5.2180    4.0190   14.8500 O.2    27  GLY27      -0.2717
     32  N          3.4740    4.3940   16.2040 N.am   28  ALA28      -0.1965
     33  CA         2.4660    4.2920   15.1430 C.3    28  ALA28       0.1728
     34  C          1.8000    5.6330   14.8780 C.2    28  ALA28       0.2616
     35  O          1.2710    6.2520   15.7990 O.2    28  ALA28      -0.2715
     36  CB         1.4080    3.2820   15.5400 C.3    28  ALA28       0.0334
     37  N          1.7960    6.0680   13.6210 N.am   29  ASP29      -0.1957
     38  CA         1.1400    7.3390   13.2720 C.3    29  ASP29       0.1840
     39  C         -0.3570    7.1460   13.3730 C.2    29  ASP29       0.2622
     40  O         -1.0800    8.0260   13.8310 O.2    29  ASP29      -0.2715
     41  CB         1.4420    7.7470   11.8310 C.3    29  ASP29       0.1450
     42  CG         2.8980    8.0380   11.5910 C.2    29  ASP29       0.3671
     43  OD1        3.6610    8.2580   12.5570 O.co2  29  ASP29      -0.2456
     44  OD2        3.2780    8.0590   10.4060 O.co2  29  ASP29      -0.2456
     45  N         -0.8040    5.9650   12.9590 N.am   30  ASP30      -0.1971
     46  CA        -2.2260    5.6370   12.9320 C.3    30  ASP30       0.1709
     47  C         -2.6680    4.5220   13.8540 C.2    30  ASP30       0.2293
     48  O         -1.8500    3.8150   14.4470 O.2    30  ASP30      -0.2864
     49  CB        -2.6310    5.2880   11.5030 C.3    30  ASP30       0.1436
     50  CG        -2.2340    6.3590   10.5140 C.2    30  ASP30       0.3671
     51  OD1       -2.6740    7.5170   10.6870 O.co2  30  ASP30      -0.2456
     52  OD2       -1.4700    6.0410    9.5780 O.co2  30  ASP30      -0.2456
     53  N         -4.6910    1.0080   14.1250 N.3    32  VAL32      -0.1245
     54  CA        -5.0750   -0.1600   13.3210 C.3    32  VAL32       0.1561
     55  C         -5.7310   -1.2060   14.2200 C.2    32  VAL32       0.2260
     56  O         -5.1210   -1.7040   15.1650 O.2    32  VAL32      -0.2867
     57  CB        -3.8600   -0.7950   12.5950 C.3    32  VAL32       0.0252
     58  CG1       -4.3410   -1.7330   11.4970 C.3    32  VAL32       0.0019
     59  CG2       -2.9560    0.2720   12.0170 C.3    32  VAL32       0.0019
     60  N         -1.2910    0.4940    3.9770 N.3    47  ILE47      -0.1231
     61  CA        -0.2540    1.0010    4.8940 C.3    47  ILE47       0.1692
     62  C          0.8850   -0.0050    4.9430 C.2    47  ILE47       0.2593
     63  O          0.6970   -1.1790    4.6220 O.2    47  ILE47      -0.2718
     64  CB        -0.7850    1.2450    6.3350 C.3    47  ILE47       0.0266
     65  CG1       -1.3460   -0.0450    6.9340 C.3    47  ILE47       0.0019
     66  CG2       -1.8490    2.3280    6.3340 C.3    47  ILE47       0.0020
     67  CD1       -1.7740    0.0950    8.3800 C.3    47  ILE47       0.0001
     68  N          2.0640    0.4480    5.3460 N.am   48  GLY48      -0.1942
     69  CA         3.1910   -0.4600    5.4100 C.3    48  GLY48       0.2014
     70  C          4.1840   -0.1910    6.5150 C.2    48  GLY48       0.2639
     71  O          4.6850    0.9200    6.6590 O.2    48  GLY48      -0.2714
     72  N          4.4570   -1.2200    7.3090 N.am   49  GLY49      -0.1939
     73  CA         5.4180   -1.0970    8.3890 C.3    49  GLY49       0.2014
     74  C          6.5620   -2.0390    8.0790 C.2    49  GLY49       0.2638
     75  O          6.8390   -2.3140    6.9080 O.2    49  GLY49      -0.2714
     76  N          7.2540   -2.5220    9.1050 N.am   50  ILE50      -0.1977
     77  CA         8.3500   -3.4610    8.8500 C.3    50  ILE50       0.1596
     78  C          7.6750   -4.7880    8.5010 C.2    50  ILE50       0.2287
     79  O          6.6450   -5.1440    9.0810 O.2    50  ILE50      -0.2864
     80  CB         9.2810   -3.5900   10.0870 C.3    50  ILE50       0.0276
     81  CG1       10.4570   -2.6220    9.9430 C.3    50  ILE50       0.0022
     82  CG2        9.7790   -5.0180   10.2600 C.3    50  ILE50       0.0022
     83  CD1       11.3430   -2.5630   11.1560 C.3    50  ILE50       0.0001
     84  N         -1.4030   -8.0820   13.6210 N.3    80  PRO80      -0.2102
     85  CA        -1.1990   -9.0870   14.6830 C.3    80  PRO80       0.1504
     86  C         -1.7250   -8.6730   16.0380 C.2    80  PRO80       0.2575
     87  O         -2.0030   -9.5110   16.8920 O.2    80  PRO80      -0.2718
     88  CB         0.3190   -9.2820   14.6780 C.3    80  PRO80       0.0282
     89  CG         0.8320   -7.9610   14.2160 C.3    80  PRO80       0.0208
     90  CD        -0.1370   -7.4560   13.1960 C.3    80  PRO80       0.0893
     91  N         -1.9310   -7.3730   16.2430 N.am   81  VAL81      -0.1980
     92  CA        -2.4330   -6.7790   17.4950 C.3    81  VAL81       0.1595
     93  C         -3.2150   -5.4710   17.2340 C.2    81  VAL81       0.2287
     94  O         -3.0000   -4.8180   16.2170 O.2    81  VAL81      -0.2864
     95  CB        -1.2730   -6.4850   18.4920 C.3    81  VAL81       0.0276
     96  CG1       -0.4370   -5.3090   18.0160 C.3    81  VAL81       0.0022
     97  CG2       -1.8120   -6.2220   19.8910 C.3    81  VAL81       0.0022
     98  N         -3.7700   -1.7670   17.5750 N.3    83  ILE83      -0.1245
     99  CA        -2.8260   -0.6620   17.8360 C.3    83  ILE83       0.1561
    100  C         -3.4850    0.7100   17.9470 C.2    83  ILE83       0.2260
    101  O         -4.2470    1.1010   17.0700 O.2    83  ILE83      -0.2867
    102  CB        -1.7660   -0.5940   16.7000 C.3    83  ILE83       0.0252
    103  CG1       -0.9040   -1.8640   16.7110 C.3    83  ILE83       0.0019
    104  CG2       -0.8890    0.6510   16.8340 C.3    83  ILE83       0.0019
    105  CD1       -0.1530   -2.1150   15.4250 C.3    83  ILE83       0.0001
@<TRIPOS>BOND
     1    60    61    1
     2    63    62    2
     3    61    62    1
     4    61    64    1
     5    62    68   am
     6    68    69    1
     7    69    70    1
     8    66    64    1
     9    64    65    1
    10    70    71    2
    11    70    72   am
    12    75    74    2
    13    65    67    1
    14    72    73    1
    15    74    73    1
    16    74    76   am
    17    78    77    1
    18    78    79    2
    19    77    76    1
    20    77    80    1
    21    52    50   ar
    22    81    80    1
    23    81    83    1
    24    80    82    1
    25    44    42   ar
    26    50    51   ar
    27    50    49    1
    28    58    57    1
    29    49    46    1
    30    42    41    1
    31    42    43   ar
    32    41    38    1
    33    59    57    1
    34    57    54    1
    35    46    45    1
    36    46    47    1
    37    45    39   am
    38    90    84    1
    39    90    89    1
    40    38    39    1
    41    38    37    1
    42    54    53    1
    43    54    55    1
    44    39    40    2
    45    84    85    1
    46    37    34   am
    47    47    48    2
    48    89    88    1
    49    55    56    2
    50    88    85    1
    51    85    86    1
    52    31    30    2
    53    34    33    1
    54    34    35    2
    55    33    36    1
    56    33    32    1
    57   105   103    1
    58    30    32   am
    59    30    29    1
    60    86    91   am
    61    86    87    2
    62    94    93    2
    63    91    92    1
    64   102   103    1
    65   102   104    1
    66   102    99    1
    67   101   100    2
    68    29    28    1
    69    93    92    1
    70    92    95    1
    71    98    99    1
    72    27    25   ar
    73    99   100    1
    74    96    95    1
    75    25    26   ar
    76    25    24    1
    77    95    97    1
    78    23    22    2
    79    24    21    1
    80    22    21    1
    81    21    20    1
    82    19    17    1
    83    15    14    2
    84    11     9    1
    85    16    17    1
    86    16    13    1
    87    10     9    1
    88    17    18    1
    89    12    13    1
    90     9     8    2
    91    14    13    1
    92     8     7    1
    93     7     6    1
    94     6     5    1
    95     5     2    1
    96     2     3    1
    97     2     1    1
    98     3     4    2
