@<TRIPOS>MOLECULE
tmp/1b6lB00.pdb
 120 112 0 0 0
SMALL
GASTEIGER

@<TRIPOS>ATOM
      1  N          6.2540   12.0920   15.1520 N.3     8  ARG8       -0.1245
      2  CA         6.8950   10.8340   15.5410 C.3     8  ARG8        0.1563
      3  C          7.9480   11.1750   16.5850 C.2     8  ARG8        0.2260
      4  O          8.7000   12.1400   16.4210 O.2     8  ARG8       -0.2867
      5  CB         7.5660   10.1810   14.3310 C.3     8  ARG8        0.0307
      6  CG         6.6020    9.8120   13.2470 C.3     8  ARG8        0.0489
      7  CD         7.2900    9.0880   12.1210 C.3     8  ARG8        0.2205
      8  NE         6.3300    8.7280   11.0690 N.pl3   8  ARG8       -0.0865
      9  CZ         6.5880    7.8870   10.0720 C.cat   8  ARG8        0.5346
     10  NH1        7.7800    7.3080    9.9810 N.pl3   8  ARG8        0.1354
     11  NH2        5.6540    7.6240    9.1680 N.pl3   8  ARG8        0.1354
     12  N         13.2730    6.0500   16.8580 N.3    23  LEU23      -0.1245
     13  CA        11.8830    6.2340   17.2940 C.3    23  LEU23       0.1561
     14  C         11.6240    5.5560   18.6480 C.2    23  LEU23       0.2260
     15  O         11.9280    4.3720   18.8160 O.2    23  LEU23      -0.2867
     16  CB        10.9650    5.6210   16.2360 C.3    23  LEU23       0.0270
     17  CG         9.4650    5.8330   16.3160 C.3    23  LEU23       0.0019
     18  CD1        9.1510    7.2980   16.1810 C.3    23  LEU23       0.0001
     19  CD2        8.8290    5.0570   15.1900 C.3    23  LEU23       0.0001
     20  N          9.4610    3.7540   20.7640 N.3    25  ASP25      -0.1239
     21  CA         8.2730    2.9590   20.4590 C.3    25  ASP25       0.1674
     22  C          7.7970    2.0520   21.5860 C.2    25  ASP25       0.2266
     23  O          8.3460    0.9690   21.8120 O.2    25  ASP25      -0.2867
     24  CB         8.5990    2.1350   19.2050 C.3    25  ASP25       0.1410
     25  CG         7.3900    1.4740   18.5770 C.2    25  ASP25       0.3668
     26  OD1        6.2680    1.5590   19.1130 O.co2  25  ASP25      -0.2456
     27  OD2        7.5800    0.8490   17.5150 O.co2  25  ASP25      -0.2456
     28  N          5.1870    0.3240   21.5490 N.3    27  GLY27      -0.1210
     29  CA         4.5580   -0.8650   20.9970 C.3    27  GLY27       0.1956
     30  C          5.5390   -1.9330   20.5350 C.2    27  GLY27       0.2612
     31  O          5.1280   -3.0340   20.1740 O.2    27  GLY27      -0.2717
     32  N          6.8300   -1.6100   20.5460 N.am   28  ALA28      -0.1965
     33  CA         7.8740   -2.5510   20.1160 C.3    28  ALA28       0.1728
     34  C          8.4700   -3.2920   21.3070 C.2    28  ALA28       0.2616
     35  O          8.9820   -2.6620   22.2290 O.2    28  ALA28      -0.2715
     36  CB         8.9690   -1.8020   19.3790 C.3    28  ALA28       0.0334
     37  N          8.4250   -4.6230   21.2850 N.am   29  ASP29      -0.1957
     38  CA         8.9880   -5.4210   22.3920 C.3    29  ASP29       0.1840
     39  C         10.5030   -5.3610   22.3780 C.2    29  ASP29       0.2622
     40  O         11.1480   -5.4100   23.4280 O.2    29  ASP29      -0.2715
     41  CB         8.5790   -6.8950   22.2860 C.3    29  ASP29       0.1450
     42  CG         7.0940   -7.1150   22.4810 C.2    29  ASP29       0.3671
     43  OD1        6.4330   -6.2970   23.1570 O.co2  29  ASP29      -0.2456
     44  OD2        6.5850   -8.1280   21.9590 O.co2  29  ASP29      -0.2456
     45  N         11.0570   -5.2510   21.1750 N.am   30  ASP30      -0.1971
     46  CA        12.5090   -5.2220   20.9760 C.3    30  ASP30       0.1709
     47  C         12.9840   -3.9460   20.2990 C.2    30  ASP30       0.2293
     48  O         12.1860   -3.1460   19.8160 O.2    30  ASP30      -0.2864
     49  CB        12.9300   -6.4250   20.1210 C.3    30  ASP30       0.1436
     50  CG        12.3190   -7.7340   20.6030 C.2    30  ASP30       0.3671
     51  OD1       12.6180   -8.1560   21.7400 O.co2  30  ASP30      -0.2456
     52  OD2       11.5340   -8.3380   19.8410 O.co2  30  ASP30      -0.2456
     53  N         15.0980   -2.4240   17.2230 N.3    32  VAL32      -0.1245
     54  CA        15.5370   -2.7950   15.8710 C.3    32  VAL32       0.1561
     55  C         16.2630   -1.6350   15.2190 C.2    32  VAL32       0.2260
     56  O         15.6730   -0.5860   14.9560 O.2    32  VAL32      -0.2867
     57  CB        14.3420   -3.1840   14.9890 C.3    32  VAL32       0.0252
     58  CG1       14.8320   -3.8290   13.7030 C.3    32  VAL32       0.0019
     59  CG2       13.4210   -4.1190   15.7420 C.3    32  VAL32       0.0019
     60  N         11.7810  -11.4790   13.3350 N.3    47  ILE47      -0.1231
     61  CA        10.8000  -10.6930   14.1010 C.3    47  ILE47       0.1692
     62  C          9.6470  -10.3020   13.1890 C.2    47  ILE47       0.2593
     63  O          9.8400  -10.0360   12.0030 O.2    47  ILE47      -0.2718
     64  CB        11.4120   -9.4270   14.7380 C.3    47  ILE47       0.0266
     65  CG1       12.1150   -8.5830   13.6770 C.3    47  ILE47       0.0019
     66  CG2       12.3470   -9.8130   15.8690 C.3    47  ILE47       0.0020
     67  CD1       12.5600   -7.2360   14.1710 C.3    47  ILE47       0.0001
     68  N          8.4410  -10.3020   13.7390 N.am   48  GLY48      -0.1942
     69  CA         7.2880   -9.9610   12.9390 C.3    48  GLY48       0.2014
     70  C          6.5860   -8.7070   13.3920 C.2    48  GLY48       0.2639
     71  O          6.7520   -8.2450   14.5190 O.2    48  GLY48      -0.2714
     72  N          5.7950   -8.1530   12.4890 N.am   49  GLY49      -0.1939
     73  CA         5.0430   -6.9570   12.7920 C.3    49  GLY49       0.2014
     74  C          3.9470   -6.8760   11.7660 C.2    49  GLY49       0.2638
     75  O          3.5400   -7.9020   11.2160 O.2    49  GLY49      -0.2714
     76  N          3.4770   -5.6630   11.5020 N.am   50  ILE50      -0.1977
     77  CA         2.4460   -5.4460   10.4820 C.3    50  ILE50       0.1596
     78  C          3.1440   -5.7180    9.1510 C.2    50  ILE50       0.2287
     79  O          4.2500   -5.2250    8.9100 O.2    50  ILE50      -0.2864
     80  CB         1.9370   -3.9810   10.4790 C.3    50  ILE50       0.0276
     81  CG1        1.0340   -3.7050   11.6830 C.3    50  ILE50       0.0022
     82  CG2        1.1780   -3.6680    9.1900 C.3    50  ILE50       0.0022
     83  CD1        0.5170   -2.2780   11.7550 C.3    50  ILE50       0.0001
     84  N         10.7280  -10.2330    9.1770 N.3    54  ILE54      -0.1245
     85  CA        11.9960   -9.8650    8.5360 C.3    54  ILE54       0.1561
     86  C         13.0990  -10.5750    9.3060 C.2    54  ILE54       0.2260
     87  O         12.9480  -10.8760   10.4920 O.2    54  ILE54      -0.2867
     88  CB        12.2660   -8.3460    8.5410 C.3    54  ILE54       0.0252
     89  CG1       12.2660   -7.8050    9.9690 C.3    54  ILE54       0.0019
     90  CG2       11.2480   -7.6280    7.6650 C.3    54  ILE54       0.0019
     91  CD1       12.9780   -6.4820   10.1090 C.3    54  ILE54       0.0001
     92  N         15.3510   -2.4880    8.4430 N.3    79  THR79      -0.1204
     93  CA        14.1940   -1.7420    8.9630 C.3    79  THR79       0.1979
     94  C         14.1890   -0.3410    8.3410 C.2    79  THR79       0.2460
     95  O         15.2490    0.2210    8.0490 O.2    79  THR79      -0.2732
     96  CB        14.2090   -1.6650   10.5240 C.3    79  THR79       0.1783
     97  OG1       13.1190   -0.8590   10.9860 O.3    79  THR79      -0.2211
     98  CG2       15.5190   -1.0890   11.0360 C.3    79  THR79       0.0376
     99  N         12.9930    0.1970    8.0400 N.am   80  PRO80      -0.2717
    100  CA        12.8790    1.5350    7.4440 C.3    80  PRO80       0.1535
    101  C         13.2170    2.6520    8.4240 C.2    80  PRO80       0.2598
    102  O         13.4790    3.7860    8.0240 O.2    80  PRO80      -0.2715
    103  CB        11.4130    1.5910    7.0000 C.3    80  PRO80       0.0310
    104  CG        10.7230    0.6820    7.9500 C.3    80  PRO80       0.0237
    105  CD        11.6790   -0.4740    8.0770 C.3    80  PRO80       0.0939
    106  N         13.2630    2.3100    9.7060 N.am   81  VAL81      -0.1978
    107  CA        13.5600    3.2980   10.7440 C.3    81  VAL81       0.1596
    108  C         14.1050    2.6060   11.9930 C.2    81  VAL81       0.2287
    109  O         13.7920    1.4440   12.2510 O.2    81  VAL81      -0.2864
    110  CB        12.2760    4.1040   11.0830 C.3    81  VAL81       0.0276
    111  CG1       11.2750    3.2420   11.8370 C.3    81  VAL81       0.0022
    112  CG2       12.6190    5.3720   11.8290 C.3    81  VAL81       0.0022
    113  N         14.2390    1.7030   15.6890 N.3    83  ILE83      -0.1245
    114  CA        13.1830    1.5950   16.7050 C.3    83  ILE83       0.1561
    115  C         13.7320    1.2100   18.0730 C.2    83  ILE83       0.2260
    116  O         14.3850    0.1730   18.2160 O.2    83  ILE83      -0.2867
    117  CB        12.1370    0.5210   16.2880 C.3    83  ILE83       0.0252
    118  CG1       11.4700    0.9190   14.9690 C.3    83  ILE83       0.0019
    119  CG2       11.0850    0.3250   17.3810 C.3    83  ILE83       0.0019
    120  CD1       10.6130   -0.1730   14.3730 C.3    83  ILE83       0.0001
@<TRIPOS>BOND
     1   103   100    1
     2   103   104    1
     3   100    99    1
     4   100   101    1
     5    90    88    1
     6   104   105    1
     7   102   101    2
     8    99   105    1
     9    99    94   am
    10    95    94    2
    11    94    93    1
    12   101   106   am
    13    92    93    1
    14    85    88    1
    15    85    84    1
    16    85    86    1
    17    88    89    1
    18    79    78    2
    19    93    96    1
    20    78    77    1
    21    11     9    1
    22    82    80    1
    23    86    87    2
    24   106   107    1
    25    89    91    1
    26    10     9    1
    27     9     8    2
    28    80    77    1
    29    80    81    1
    30    77    76    1
    31    96    97    1
    32    96    98    1
    33   107   110    1
    34   107   108    1
    35     8     7    1
    36   110   112    1
    37   110   111    1
    38    75    74    2
    39    76    74   am
    40    81    83    1
    41    74    73    1
    42   108   109    2
    43    63    62    2
    44     7     6    1
    45    72    73    1
    46    72    70   am
    47    69    70    1
    48    69    68    1
    49    62    68   am
    50    62    61    1
    51     6     5    1
    52    60    61    1
    53    70    71    2
    54    65    67    1
    55    65    64    1
    56    58    57    1
    57    61    64    1
    58     5     2    1
    59   120   118    1
    60    64    66    1
    61    56    55    2
    62   118   117    1
    63    57    59    1
    64    57    54    1
    65     1     2    1
    66    19    17    1
    67    55    54    1
    68     2     3    1
    69   113   114    1
    70    54    53    1
    71    18    17    1
    72    16    17    1
    73    16    13    1
    74   117   114    1
    75   117   119    1
    76     4     3    2
    77   114   115    1
    78    12    13    1
    79    13    14    1
    80    27    25   ar
    81   115   116    2
    82    25    26   ar
    83    25    24    1
    84    14    15    2
    85    24    21    1
    86    36    33    1
    87    48    47    2
    88    52    50   ar
    89    33    32    1
    90    33    34    1
    91    49    50    1
    92    49    46    1
    93    31    30    2
    94    47    46    1
    95    21    20    1
    96    21    22    1
    97    30    32   am
    98    30    29    1
    99    50    51   ar
   100    46    45    1
   101    29    28    1
   102    45    39   am
   103    37    34   am
   104    37    38    1
   105    34    35    2
   106    22    23    2
   107    44    42   ar
   108    41    38    1
   109    41    42    1
   110    39    38    1
   111    39    40    2
   112    42    43   ar
