@<TRIPOS>MOLECULE
tmp/1b6pB00.pdb
 109 103 0 0 0
SMALL
GASTEIGER

@<TRIPOS>ATOM
      1  N          6.2520   12.2680   15.3360 N.3     8  ARG8       -0.1245
      2  CA         6.8760   10.9960   15.7440 C.3     8  ARG8        0.1563
      3  C          7.9380   11.2800   16.8000 C.2     8  ARG8        0.2260
      4  O          8.7580   12.1860   16.6340 O.2     8  ARG8       -0.2867
      5  CB         7.5300   10.3060   14.5470 C.3     8  ARG8        0.0307
      6  CG         6.5600    9.8010   13.5110 C.3     8  ARG8        0.0489
      7  CD         7.3060    9.2090   12.3380 C.3     8  ARG8        0.2205
      8  NE         6.3980    8.8300   11.2490 N.pl3   8  ARG8       -0.0865
      9  CZ         6.7740    8.1740   10.1560 C.cat   8  ARG8        0.5346
     10  NH1        8.0400    7.8150    9.9950 N.pl3   8  ARG8        0.1354
     11  NH2        5.8840    7.8800    9.2190 N.pl3   8  ARG8        0.1354
     12  N         13.2540    6.1340   16.9220 N.3    23  LEU23      -0.1245
     13  CA        11.8590    6.2980   17.3330 C.3    23  LEU23       0.1561
     14  C         11.5560    5.6250   18.6690 C.2    23  LEU23       0.2260
     15  O         11.8350    4.4400   18.8510 O.2    23  LEU23      -0.2867
     16  CB        10.9670    5.7120   16.2360 C.3    23  LEU23       0.0270
     17  CG         9.4660    5.9790   16.2010 C.3    23  LEU23       0.0019
     18  CD1        9.2040    7.4690   16.2180 C.3    23  LEU23       0.0001
     19  CD2        8.8970    5.3590   14.9380 C.3    23  LEU23       0.0001
     20  N          9.4430    3.7710   20.7150 N.3    25  ASP25      -0.1239
     21  CA         8.3080    2.9080   20.3860 C.3    25  ASP25       0.1674
     22  C          7.8620    1.9970   21.5220 C.2    25  ASP25       0.2266
     23  O          8.4810    0.9650   21.7800 O.2    25  ASP25      -0.2867
     24  CB         8.7090    2.0720   19.1690 C.3    25  ASP25       0.1410
     25  CG         7.5430    1.3770   18.5040 C.2    25  ASP25       0.3668
     26  OD1        6.4440    1.2790   19.0850 O.co2  25  ASP25      -0.2456
     27  OD2        7.7460    0.9170   17.3680 O.co2  25  ASP25      -0.2456
     28  N          5.3030    0.2340   21.4170 N.3    27  GLY27      -0.1210
     29  CA         4.6610   -0.9150   20.8010 C.3    27  GLY27       0.1956
     30  C          5.6520   -1.9550   20.3060 C.2    27  GLY27       0.2612
     31  O          5.2640   -2.9730   19.7370 O.2    27  GLY27      -0.2717
     32  N          6.9370   -1.6970   20.5190 N.am   28  ALA28      -0.1965
     33  CA         7.9870   -2.6250   20.0910 C.3    28  ALA28       0.1728
     34  C          8.5560   -3.3660   21.2900 C.2    28  ALA28       0.2616
     35  O          8.9450   -2.7490   22.2800 O.2    28  ALA28      -0.2715
     36  CB         9.0940   -1.8680   19.3700 C.3    28  ALA28       0.0334
     37  N          8.5630   -4.6930   21.2120 N.am   29  ASP29      -0.1957
     38  CA         9.1160   -5.5270   22.2890 C.3    29  ASP29       0.1840
     39  C         10.6320   -5.4370   22.2290 C.2    29  ASP29       0.2622
     40  O         11.3130   -5.4840   23.2540 O.2    29  ASP29      -0.2715
     41  CB         8.7360   -7.0000   22.0970 C.3    29  ASP29       0.1450
     42  CG         7.2560   -7.2660   22.2800 C.2    29  ASP29       0.3671
     43  OD1        6.5250   -6.3910   22.7900 O.co2  29  ASP29      -0.2456
     44  OD2        6.8280   -8.3780   21.9150 O.co2  29  ASP29      -0.2456
     45  N         11.1440   -5.3120   21.0080 N.am   30  ASP30      -0.1971
     46  CA        12.5860   -5.2560   20.7540 C.3    30  ASP30       0.1709
     47  C         13.0610   -3.9420   20.1540 C.2    30  ASP30       0.2293
     48  O         12.2720   -3.1460   19.6410 O.2    30  ASP30      -0.2864
     49  CB        12.9810   -6.3810   19.7920 C.3    30  ASP30       0.1436
     50  CG        12.3860   -7.7200   20.1780 C.2    30  ASP30       0.3671
     51  OD1       12.6800   -8.2060   21.2920 O.co2  30  ASP30      -0.2456
     52  OD2       11.6230   -8.2850   19.3610 O.co2  30  ASP30      -0.2456
     53  N         11.7760  -11.2070   13.3440 N.3    47  ILE47      -0.1231
     54  CA        10.8330  -10.4080   14.1320 C.3    47  ILE47       0.1692
     55  C          9.6720  -10.0000   13.2460 C.2    47  ILE47       0.2593
     56  O          9.8440   -9.7500   12.0510 O.2    47  ILE47      -0.2718
     57  CB        11.4810   -9.1540   14.7390 C.3    47  ILE47       0.0266
     58  CG1       12.2530   -8.3800   13.6720 C.3    47  ILE47       0.0019
     59  CG2       12.3520   -9.5430   15.9120 C.3    47  ILE47       0.0020
     60  CD1       12.7350   -7.0300   14.1300 C.3    47  ILE47       0.0001
     61  N          8.4850   -9.9610   13.8350 N.am   48  GLY48      -0.1942
     62  CA         7.3080   -9.6000   13.0780 C.3    48  GLY48       0.2014
     63  C          6.6850   -8.2880   13.4880 C.2    48  GLY48       0.2639
     64  O          6.8090   -7.8360   14.6260 O.2    48  GLY48      -0.2714
     65  N          6.0280   -7.6680   12.5210 N.am   49  GLY49      -0.1939
     66  CA         5.3440   -6.4170   12.7480 C.3    49  GLY49       0.2014
     67  C          4.1360   -6.4660   11.8390 C.2    49  GLY49       0.2638
     68  O          3.6760   -7.5560   11.4890 O.2    49  GLY49      -0.2714
     69  N          3.6120   -5.3130   11.4700 N.am   50  ILE50      -0.1977
     70  CA         2.4080   -5.2290   10.6200 C.3    50  ILE50       0.1596
     71  C          2.3620   -6.0530    9.3220 C.2    50  ILE50       0.2287
     72  O          1.5040   -6.9270    9.1790 O.2    50  ILE50      -0.2864
     73  CB         2.0500   -3.7450   10.3360 C.3    50  ILE50       0.0276
     74  CG1        1.5690   -3.0760   11.6260 C.3    50  ILE50       0.0022
     75  CG2        0.9890   -3.6290    9.2550 C.3    50  ILE50       0.0022
     76  CD1        0.3860   -3.7710   12.2820 C.3    50  ILE50       0.0001
     77  N          7.2250  -10.6620    8.6340 N.3    53  PHE53      -0.1241
     78  CA         8.5010  -10.8630    9.3300 C.3    53  PHE53       0.1605
     79  C          9.7090  -10.4690    8.5000 C.2    53  PHE53       0.2264
     80  O          9.6840  -10.5280    7.2700 O.2    53  PHE53      -0.2867
     81  CB         8.6500  -12.3300    9.7480 C.3    53  PHE53       0.0534
     82  CG         7.7150  -12.7500   10.8430 C.ar   53  PHE53      -0.0203
     83  CD1        6.3720  -12.9940   10.5770 C.ar   53  PHE53      -0.0042
     84  CD2        8.1740  -12.8870   12.1470 C.ar   53  PHE53      -0.0042
     85  CE1        5.5020  -13.3660   11.5920 C.ar   53  PHE53      -0.0003
     86  CE2        7.3100  -13.2590   13.1720 C.ar   53  PHE53      -0.0003
     87  CZ         5.9710  -13.4990   12.8930 C.ar   53  PHE53      -0.0000
     88  N         13.1540    0.6110    7.8830 N.3    80  PRO80      -0.2102
     89  CA        13.0500    1.9730    7.3510 C.3    80  PRO80       0.1504
     90  C         13.3860    3.0360    8.3880 C.2    80  PRO80       0.2575
     91  O         13.7370    4.1660    8.0420 O.2    80  PRO80      -0.2718
     92  CB        11.5820    2.0540    6.9270 C.3    80  PRO80       0.0282
     93  CG        10.8990    1.1460    7.8950 C.3    80  PRO80       0.0208
     94  CD        11.8320   -0.0370    7.9190 C.3    80  PRO80       0.0893
     95  N         13.3180    2.6520    9.6600 N.am   81  VAL81      -0.1980
     96  CA        13.5870    3.5810   10.7630 C.3    81  VAL81       0.1595
     97  C         14.1510    2.8590   11.9850 C.2    81  VAL81       0.2287
     98  O         13.8640    1.6810   12.2120 O.2    81  VAL81      -0.2864
     99  CB        12.2870    4.3380   11.1590 C.3    81  VAL81       0.0276
    100  CG1       11.2300    3.3630   11.6620 C.3    81  VAL81       0.0022
    101  CG2       12.5730    5.4070   12.2000 C.3    81  VAL81       0.0022
    102  N         14.2840    1.8500   15.6500 N.3    83  ILE83      -0.1245
    103  CA        13.2480    1.6960   16.6770 C.3    83  ILE83       0.1561
    104  C         13.8120    1.3220   18.0430 C.2    83  ILE83       0.2260
    105  O         14.5180    0.3240   18.1750 O.2    83  ILE83      -0.2867
    106  CB        12.2410    0.5960   16.2560 C.3    83  ILE83       0.0252
    107  CG1       11.5520    0.9840   14.9450 C.3    83  ILE83       0.0019
    108  CG2       11.2150    0.3570   17.3520 C.3    83  ILE83       0.0019
    109  CD1       10.7820   -0.1410   14.3060 C.3    83  ILE83       0.0001
@<TRIPOS>BOND
     1    92    89    1
     2    92    93    1
     3    80    79    2
     4    89    88    1
     5    89    90    1
     6    88    94    1
     7    93    94    1
     8    91    90    2
     9    90    95   am
    10    79    78    1
    11    77    78    1
    12    72    71    2
    13    11     9    1
    14    75    73    1
    15    71    70    1
    16    78    81    1
    17    95    96    1
    18    81    82    1
    19    10     9    1
    20     9     8    2
    21    73    70    1
    22    73    74    1
    23    83    82   ar
    24    83    85   ar
    25    70    69    1
    26    96    99    1
    27    96    97    1
    28    82    84   ar
    29    99   100    1
    30    99   101    1
    31     8     7    1
    32    69    67   am
    33    68    67    2
    34    85    87   ar
    35    74    76    1
    36    67    66    1
    37    97    98    2
    38    56    55    2
    39    84    86   ar
    40     7     6    1
    41    65    66    1
    42    65    63   am
    43    87    86   ar
    44    62    63    1
    45    62    61    1
    46    55    61   am
    47    55    54    1
    48    53    54    1
    49    63    64    2
    50     6     5    1
    51    58    60    1
    52    58    57    1
    53    54    57    1
    54   109   107    1
    55     5     2    1
    56    57    59    1
    57    19    17    1
    58   107   106    1
    59     1     2    1
    60   102   103    1
    61     2     3    1
    62    17    18    1
    63    17    16    1
    64    16    13    1
    65   106   103    1
    66   106   108    1
    67     4     3    2
    68   103   104    1
    69    12    13    1
    70    13    14    1
    71    27    25   ar
    72   104   105    2
    73    25    26   ar
    74    25    24    1
    75    14    15    2
    76    24    21    1
    77    52    50   ar
    78    36    33    1
    79    48    47    2
    80    31    30    2
    81    49    50    1
    82    49    46    1
    83    33    32    1
    84    33    34    1
    85    47    46    1
    86    50    51   ar
    87    30    32   am
    88    30    29    1
    89    21    20    1
    90    21    22    1
    91    46    45    1
    92    29    28    1
    93    45    39   am
    94    37    34   am
    95    37    38    1
    96    34    35    2
    97    22    23    2
    98    44    42   ar
    99    41    42    1
   100    41    38    1
   101    39    38    1
   102    39    40    2
   103    42    43   ar
