@<TRIPOS>MOLECULE
tmp/1b6sB00.pdb
 184 173 0 0 0
SMALL
GASTEIGER

@<TRIPOS>ATOM
      1  N        -18.3500  -20.7670   20.0420 N.3    80  ARG80      -0.1245
      2  CA       -19.3050  -19.7340   20.3800 C.3    80  ARG80       0.1563
      3  C        -19.7370  -19.8530   21.8220 C.2    80  ARG80       0.2260
      4  O        -20.0850  -18.8560   22.4580 O.2    80  ARG80      -0.2867
      5  CB       -20.5190  -19.7210   19.4520 C.3    80  ARG80       0.0307
      6  CG       -20.3100  -18.9320   18.1560 C.3    80  ARG80       0.0489
      7  CD       -21.5600  -18.7880   17.2840 C.3    80  ARG80       0.2205
      8  NE       -21.2500  -18.5790   15.8680 N.pl3  80  ARG80      -0.0865
      9  CZ       -21.0220  -17.3920   15.2880 C.cat  80  ARG80       0.5346
     10  NH1      -21.0650  -16.2200   15.9360 N.pl3  80  ARG80       0.1354
     11  NH2      -20.7450  -17.3780   13.9950 N.pl3  80  ARG80       0.1354
     12  N        -32.6720  -17.6170   17.1490 N.3   118  ILE118     -0.1245
     13  CA       -31.4990  -17.6270   16.3050 C.3   118  ILE118      0.1561
     14  C        -30.5310  -18.7010   16.8030 C.2   118  ILE118      0.2260
     15  O        -29.8760  -18.5390   17.8210 O.2   118  ILE118     -0.2867
     16  CB       -30.8270  -16.2530   16.2590 C.3   118  ILE118      0.0252
     17  CG1      -31.5670  -15.3360   15.2990 C.3   118  ILE118      0.0019
     18  CG2      -29.4180  -16.3960   15.7370 C.3   118  ILE118      0.0019
     19  CD1      -32.2840  -14.2210   16.0260 C.3   118  ILE118      0.0001
     20  N        -27.1960  -20.9780   16.4230 N.3   120  LYS120     -0.1245
     21  CA       -25.8970  -20.8720   15.7980 C.3   120  LYS120      0.1561
     22  C        -25.0180  -22.0460   16.1180 C.2   120  LYS120      0.2260
     23  O        -25.0970  -22.5800   17.2030 O.2   120  LYS120     -0.2867
     24  CB       -25.2140  -19.5650   16.2010 C.3   120  LYS120      0.0271
     25  CG       -26.1490  -18.3490   16.1170 C.3   120  LYS120      0.0035
     26  CD       -25.4350  -17.0560   15.8030 C.3   120  LYS120      0.0206
     27  CE       -25.7770  -15.9600   16.8000 C.3   120  LYS120      0.1093
     28  NZ       -24.9490  -14.7630   16.5970 N.3   120  LYS120     -0.1314
     29  N        -18.7670  -21.6250   11.1540 N.3   125  GLY125     -0.1210
     30  CA       -19.8490  -20.7400   10.7230 C.3   125  GLY125      0.1956
     31  C        -19.2380  -19.3920   10.3580 C.2   125  GLY125      0.2612
     32  O        -19.1510  -18.4850   11.1890 O.2   125  GLY125     -0.2717
     33  N        -18.7690  -19.2810    9.1140 N.am  126  TYR126     -0.1962
     34  CA       -18.0730  -18.0920    8.6640 C.3   126  TYR126      0.1771
     35  C        -18.9270  -16.9430    8.1910 C.2   126  TYR126      0.2620
     36  O        -18.7320  -15.7950    8.6180 O.2   126  TYR126     -0.2715
     37  CB       -16.9550  -18.4110    7.6580 C.3   126  TYR126      0.0574
     38  CG       -17.4200  -19.2600    6.5030 C.ar  126  TYR126     -0.0198
     39  CD1      -17.3940  -20.6520    6.5820 C.ar  126  TYR126     -0.0009
     40  CD2      -17.8670  -18.6660    5.3240 C.ar  126  TYR126     -0.0009
     41  CE1      -17.8100  -21.4450    5.5130 C.ar  126  TYR126      0.0417
     42  CE2      -18.3020  -19.4380    4.2490 C.ar  126  TYR126      0.0417
     43  CZ       -18.2620  -20.8310    4.3440 C.ar  126  TYR126      0.1957
     44  OH       -18.6820  -21.6080    3.2930 O.3   126  TYR126     -0.2866
     45  N        -19.8480  -17.2480    7.2890 N.am  127  ASP127     -0.1957
     46  CA       -20.6910  -16.1960    6.7630 C.3   127  ASP127      0.1840
     47  C        -22.1520  -16.4830    6.9230 C.2   127  ASP127      0.2623
     48  O        -22.7960  -16.8840    5.9520 O.2   127  ASP127     -0.2715
     49  CB       -20.3800  -15.8710    5.2950 C.3   127  ASP127      0.1450
     50  CG       -19.1910  -14.9620    5.1320 C.2   127  ASP127      0.3671
     51  OD1      -19.1680  -13.9380    5.9760 O.co2 127  ASP127     -0.2456
     52  OD2      -18.3420  -15.1650    4.2850 O.co2 127  ASP127     -0.2456
     53  N        -22.6530  -16.2210    8.1450 N.am  128  GLY128     -0.1940
     54  CA       -24.0390  -16.4320    8.5420 C.3   128  GLY128      0.2014
     55  C        -24.4950  -17.8030    8.0900 C.2   128  GLY128      0.2638
     56  O        -25.6790  -18.0360    7.8560 O.2   128  GLY128     -0.2714
     57  N        -23.5070  -18.6920    7.9840 N.am  129  ARG129     -0.1977
     58  CA       -23.6310  -20.0590    7.5100 C.3   129  ARG129      0.1597
     59  C        -24.5920  -20.9560    8.2960 C.2   129  ARG129      0.2287
     60  O        -25.8100  -20.9700    8.0620 O.2   129  ARG129     -0.2864
     61  CB       -22.2400  -20.6760    7.3900 C.3   129  ARG129      0.0334
     62  CG       -22.2640  -22.1280    6.9450 C.3   129  ARG129      0.0492
     63  CD       -22.8120  -22.3170    5.5320 C.3   129  ARG129      0.2205
     64  NE       -22.5280  -23.6510    5.0020 N.pl3 129  ARG129     -0.0865
     65  CZ       -21.3870  -23.9610    4.3910 C.cat 129  ARG129      0.5346
     66  NH1      -20.4260  -23.0500    4.2350 N.pl3 129  ARG129      0.1354
     67  NH2      -21.2140  -25.2110    3.9430 N.pl3 129  ARG129      0.1354
     68  N        -26.4860  -21.1530   10.6910 N.3   131  GLN131     -0.1245
     69  CA       -27.3350  -20.3060   11.5080 C.3   131  GLN131      0.1566
     70  C        -28.7750  -20.4180   11.0400 C.2   131  GLN131      0.2260
     71  O        -29.0720  -20.3850    9.8450 O.2   131  GLN131     -0.2867
     72  CB       -26.8530  -18.8350   11.5860 C.3   131  GLN131      0.0367
     73  CG       -27.9800  -17.8040   11.4590 C.3   131  GLN131      0.0905
     74  CD       -27.6200  -16.4180   11.9450 C.2   131  GLN131      0.2608
     75  OE1      -28.4990  -15.5430   12.0030 O.2   131  GLN131     -0.2717
     76  NE2      -26.3470  -16.2170   12.3110 N.am  131  GLN131     -0.0878
     77  N        -32.9640  -19.2020   11.9740 N.3   133  ARG133     -0.1245
     78  CA       -33.8920  -18.2660   12.6140 C.3   133  ARG133      0.1563
     79  C        -35.1590  -19.0700   12.6380 C.2   133  ARG133      0.2260
     80  O        -35.7340  -19.3570   11.5960 O.2   133  ARG133     -0.2867
     81  CB       -34.0970  -16.9290   11.8870 C.3   133  ARG133      0.0307
     82  CG       -32.8950  -15.9780   11.9660 C.3   133  ARG133      0.0489
     83  CD       -33.1060  -14.6490   11.2310 C.3   133  ARG133      0.2205
     84  NE       -31.8790  -13.9230   10.8650 N.pl3 133  ARG133     -0.0865
     85  CZ       -31.7690  -12.5830   10.9060 C.cat 133  ARG133      0.5346
     86  NH1      -32.7870  -11.8000   11.3140 N.pl3 133  ARG133      0.1354
     87  NH2      -30.6080  -12.0190   10.5410 N.pl3 133  ARG133      0.1354
     88  N        -29.8350  -17.8650   20.7640 N.3   153  GLU153     -0.1231
     89  CA       -29.8650  -16.5320   21.2790 C.3   153  GLU153      0.1699
     90  C        -31.2200  -15.9500   20.9500 C.2   153  GLU153      0.2592
     91  O        -31.9260  -16.4090   20.0550 O.2   153  GLU153     -0.2718
     92  CB       -28.8330  -15.6610   20.5600 C.3   153  GLU153      0.0402
     93  CG       -27.3570  -15.9580   20.8380 C.3   153  GLU153      0.1161
     94  CD       -26.5210  -14.9180   20.1440 C.2   153  GLU153      0.3649
     95  OE1      -26.9750  -14.6460   18.9560 O.co2 153  GLU153     -0.2457
     96  OE2      -25.5630  -14.3560   20.6450 O.co2 153  GLU153     -0.2457
     97  N        -31.5560  -14.9120   21.6650 N.am  154  GLN154     -0.1979
     98  CA       -32.7890  -14.2530   21.4310 C.3   154  GLN154      0.1601
     99  C        -32.6250  -13.3280   20.2430 C.2   154  GLN154      0.2287
    100  O        -31.6620  -12.5730   20.2270 O.2   154  GLN154     -0.2864
    101  CB       -33.0820  -13.3770   22.6490 C.3   154  GLN154      0.0394
    102  CG       -33.6180  -11.9920   22.2260 C.3   154  GLN154      0.0908
    103  CD       -34.1890  -11.2570   23.4190 C.2   154  GLN154      0.2608
    104  OE1      -34.2960  -11.8330   24.5370 O.2   154  GLN154     -0.2717
    105  NE2      -34.5690  -10.0060   23.1680 N.am  154  GLN154     -0.0878
    106  N        -32.3800  -10.3590   18.1130 N.3   156  ILE156     -0.1245
    107  CA       -32.0750   -9.0010   18.4680 C.3   156  ILE156      0.1561
    108  C        -32.5220   -8.1300   17.3410 C.2   156  ILE156      0.2260
    109  O        -32.3470   -8.5030   16.1710 O.2   156  ILE156     -0.2867
    110  CB       -30.6040   -8.7840   18.8650 C.3   156  ILE156      0.0252
    111  CG1      -30.2680   -9.6530   20.0650 C.3   156  ILE156      0.0019
    112  CG2      -30.3740   -7.3250   19.2660 C.3   156  ILE156      0.0019
    113  CD1      -31.0670   -9.2750   21.3140 C.3   156  ILE156      0.0001
    114  N        -31.9700   -4.6700   15.9380 N.3   158  PHE158     -0.1241
    115  CA       -31.0280   -3.5750   16.0180 C.3   158  PHE158      0.1605
    116  C        -31.1330   -2.5300   14.9260 C.2   158  PHE158      0.2264
    117  O        -31.4500   -2.8190   13.7720 O.2   158  PHE158     -0.2867
    118  CB       -29.6360   -4.2100   15.9980 C.3   158  PHE158      0.0534
    119  CG       -29.4330   -5.0830   14.7750 C.ar  158  PHE158     -0.0203
    120  CD1      -29.0480   -4.4920   13.5730 C.ar  158  PHE158     -0.0042
    121  CD2      -29.5380   -6.4720   14.8160 C.ar  158  PHE158     -0.0042
    122  CE1      -28.8010   -5.2440   12.4270 C.ar  158  PHE158     -0.0003
    123  CE2      -29.2720   -7.2540   13.6850 C.ar  158  PHE158     -0.0003
    124  CZ       -28.9170   -6.6310   12.4860 C.ar  158  PHE158     -0.0000
    125  N        -25.4230   -2.3080   12.6720 N.3   161  GLU161     -0.1245
    126  CA       -24.2680   -3.1210   13.0540 C.3   161  GLU161      0.1567
    127  C        -22.9570   -2.3300   12.9430 C.2   161  GLU161      0.2260
    128  O        -22.7290   -1.5630   12.0130 O.2   161  GLU161     -0.2867
    129  CB       -24.1040   -4.5040   12.3460 C.3   161  GLU161      0.0388
    130  CG       -25.3250   -5.4440   12.4010 C.3   161  GLU161      0.1160
    131  CD       -25.0810   -6.7720   11.7750 C.2   161  GLU161      0.3649
    132  OE1      -24.3780   -7.5420   12.5600 O.co2 161  GLU161     -0.2457
    133  OE2      -25.4640   -7.0890   10.6520 O.co2 161  GLU161     -0.2457
    134  N        -24.5100   -6.3060    6.1910 N.3   184  HIS184     -0.1241
    135  CA       -24.5710   -7.7000    5.8410 C.3   184  HIS184      0.1621
    136  C        -25.8020   -7.9970    5.0100 C.2   184  HIS184      0.2264
    137  O        -26.8810   -7.5250    5.3120 O.2   184  HIS184     -0.2867
    138  CB       -24.6560   -8.5230    7.1260 C.3   184  HIS184      0.0745
    139  CG       -23.3680   -8.5330    7.8440 C.ar  184  HIS184      0.0817
    140  ND1      -23.0230   -7.5080    8.7010 N.ar  184  HIS184     -0.2268
    141  CD2      -22.3560   -9.4410    7.8160 C.ar  184  HIS184      0.1154
    142  CE1      -21.8160   -7.7970    9.1600 C.ar  184  HIS184      0.1986
    143  NE2      -21.3970   -8.9630    8.6600 N.ar  184  HIS184     -0.2212
    144  N        -26.4490  -12.7660    5.2760 N.3   187  GLY187     -0.1225
    145  CA       -25.4810  -13.1140    6.2870 C.3   187  GLY187      0.1811
    146  C        -24.0820  -12.8810    5.7880 C.2   187  GLY187      0.2280
    147  O        -23.1320  -13.4470    6.2990 O.2   187  GLY187     -0.2866
    148  N        -17.6800   -7.5140   16.8800 N.3   226  GLU226     -0.1245
    149  CA       -18.8980   -7.1710   16.1670 C.3   226  GLU226      0.1567
    150  C        -20.0250   -6.9060   17.1580 C.2   226  GLU226      0.2260
    151  O        -20.2980   -7.7150   18.0800 O.2   226  GLU226     -0.2867
    152  CB       -19.3080   -8.3030   15.2070 C.3   226  GLU226      0.0388
    153  CG       -18.5590   -8.3100   13.8600 C.3   226  GLU226      0.1160
    154  CD       -18.7920   -9.5950   13.0900 C.2   226  GLU226      0.3649
    155  OE1      -18.8770  -10.6550   13.8630 O.co2 226  GLU226     -0.2457
    156  OE2      -18.9330   -9.6310   11.8820 O.co2 226  GLU226     -0.2457
    157  N        -24.1010   -5.0190   17.8470 N.3   228  PHE228     -0.1241
    158  CA       -25.3780   -4.6050   17.3530 C.3   228  PHE228      0.1605
    159  C        -25.6660   -3.3150   18.0890 C.2   228  PHE228      0.2264
    160  O        -25.4000   -3.2060   19.3040 O.2   228  PHE228     -0.2867
    161  CB       -26.5250   -5.5590   17.7420 C.3   228  PHE228      0.0534
    162  CG       -26.4500   -6.9220   17.1720 C.ar  228  PHE228     -0.0203
    163  CD1      -26.2260   -7.1040   15.8060 C.ar  228  PHE228     -0.0042
    164  CD2      -26.6330   -8.0450   17.9840 C.ar  228  PHE228     -0.0042
    165  CE1      -26.1490   -8.3960   15.2670 C.ar  228  PHE228     -0.0003
    166  CE2      -26.5560   -9.3360   17.4490 C.ar  228  PHE228     -0.0003
    167  CZ       -26.3280   -9.5180   16.0820 C.ar  228  PHE228     -0.0000
    168  N        -21.8260   -9.0620   19.6210 N.3   237  ASN237     -0.1225
    169  CA       -22.2670  -10.1330   18.7930 C.3   237  ASN237      0.1785
    170  C        -21.2250  -11.2550   18.7390 C.2   237  ASN237      0.2597
    171  O        -21.3980  -12.3260   19.3200 O.2   237  ASN237     -0.2718
    172  CB       -22.5640   -9.6410   17.3730 C.3   237  ASN237      0.1169
    173  CG       -23.0220  -10.7210   16.3910 C.2   237  ASN237      0.2627
    174  OD1      -23.8490  -11.5950   16.7100 O.2   237  ASN237     -0.2716
    175  ND2      -22.4810  -10.6460   15.1740 N.am  237  ASN237     -0.0877
    176  N        -20.1390  -10.9630   18.0390 N.am  238  GLU238     -0.1979
    177  CA       -19.0560  -11.8880   17.7830 C.3   238  GLU238      0.1602
    178  C        -17.6740  -11.2420   17.9190 C.2   238  GLU238      0.2287
    179  O        -17.4850  -10.0320   17.7970 O.2   238  GLU238     -0.2864
    180  CB       -19.1530  -12.2520   16.2800 C.3   238  GLU238      0.0415
    181  CG       -19.6620  -13.6540   15.9450 C.3   238  GLU238      0.1163
    182  CD       -19.2030  -14.0260   14.5560 C.2   238  GLU238      0.3649
    183  OE1      -19.4620  -13.0840   13.6930 O.co2 238  GLU238     -0.2457
    184  OE2      -18.6420  -15.0750   14.2670 O.co2 238  GLU238     -0.2457
@<TRIPOS>BOND
     1    44    43    1
     2    67    65    1
     3    66    65    1
     4    42    43   ar
     5    42    40   ar
     6    52    50   ar
     7    43    41   ar
     8    65    64    2
     9    64    63    1
    10   136   137    2
    11   136   135    1
    12    50    49    1
    13    50    51   ar
    14   144   145    1
    15    49    46    1
    16    40    38   ar
    17    41    39   ar
    18    63    62    1
    19   146   145    1
    20   146   147    2
    21   135   134    1
    22   135   138    1
    23    48    47    2
    24    38    39   ar
    25    38    37    1
    26    46    47    1
    27    46    45    1
    28    47    53   am
    29    62    61    1
    30   138   139    1
    31    45    35   am
    32    61    58    1
    33    58    57    1
    34    58    59    1
    35    37    34    1
    36   141   139   ar
    37   141   143   ar
    38   139   140   ar
    39    56    55    2
    40    57    55   am
    41    60    59    2
    42    55    54    1
    43    53    54    1
    44    35    36    2
    45    35    34    1
    46   143   142   ar
    47    34    33    1
    48   140   142   ar
    49    33    31   am
    50    71    70    2
    51    31    30    1
    52    31    32    2
    53    87    85    1
    54   133   131   ar
    55    68    69    1
    56    30    29    1
    57    84    85    2
    58    84    83    1
    59    85    86    1
    60    70    69    1
    61    83    82    1
    62    73    72    1
    63    73    74    1
    64    69    72    1
    65    80    79    2
    66   131   130    1
    67   131   132   ar
    68   156   154   ar
    69    81    82    1
    70    81    78    1
    71    74    75    2
    72    74    76   am
    73    77    78    1
    74   128   127    2
    75   129   130    1
    76   129   126    1
    77   122   124   ar
    78   122   120   ar
    79   124   123   ar
    80    78    79    1
    81   125   126    1
    82   127   126    1
    83   154   153    1
    84   154   155   ar
    85   120   119   ar
    86   123   121   ar
    87   183   182   ar
    88   117   116    2
    89   153   152    1
    90    11     9    1
    91   184   182   ar
    92   182   181    1
    93   119   121   ar
    94   119   118    1
    95   116   115    1
    96   175   173   am
    97   152   149    1
    98   165   163   ar
    99   165   167   ar
   100     9     8    2
   101     9    10    1
   102    17    19    1
   103    17    16    1
   104    18    16    1
   105    21    22    1
   106    21    24    1
   107    21    20    1
   108    26    25    1
   109    26    27    1
   110   163   162   ar
   111     8     7    1
   112   114   115    1
   113   181   180    1
   114   118   115    1
   115   167   166   ar
   116    25    24    1
   117    22    23    2
   118   149   148    1
   119   149   150    1
   120   109   108    2
   121    16    13    1
   122   180   177    1
   123    13    14    1
   124    13    12    1
   125   173   174    2
   126   173   172    1
   127    28    27    1
   128    14    15    2
   129   150   151    2
   130   162   161    1
   131   162   164   ar
   132     7     6    1
   133   108   107    1
   134   158   161    1
   135   158   157    1
   136   158   159    1
   137   172   169    1
   138   166   164   ar
   139   177   178    1
   140   177   176    1
   141   179   178    2
   142   176   170   am
   143   159   160    2
   144   106   107    1
   145     6     5    1
   146   107   110    1
   147   170   169    1
   148   170   171    2
   149   169   168    1
   150   110   112    1
   151   110   111    1
   152    95    94   ar
   153     5     2    1
   154     1     2    1
   155    91    90    2
   156   111   113    1
   157    94    96   ar
   158    94    93    1
   159   100    99    2
   160    99    98    1
   161     2     3    1
   162    92    93    1
   163    92    89    1
   164    88    89    1
   165    90    89    1
   166    90    97   am
   167    98    97    1
   168    98   101    1
   169     3     4    2
   170   102   101    1
   171   102   103    1
   172   105   103   am
   173   103   104    2
