@<TRIPOS>MOLECULE
tmp/1b74A00.pdb
 119 110 0 0 0
SMALL
GASTEIGER

@<TRIPOS>ATOM
      1  N         30.3780   37.7450   28.8830 N.3     7  ASP7       -0.1225
      2  CA        29.3230   36.9420   28.3150 C.3     7  ASP7        0.1805
      3  C         29.8950   36.1910   27.1210 C.2     7  ASP7        0.2598
      4  O         30.9150   36.5850   26.5960 O.2     7  ASP7       -0.2718
      5  CB        28.2450   37.8870   27.8090 C.3     7  ASP7        0.1424
      6  CG        26.9350   37.2130   27.6230 C.2     7  ASP7        0.3668
      7  OD1       26.8050   36.0280   27.9540 O.co2   7  ASP7       -0.2456
      8  OD2       25.9990   37.8870   27.1960 O.co2   7  ASP7       -0.2456
      9  N         29.2270   35.1260   26.6760 N.am    8  SER8       -0.1952
     10  CA        29.6960   34.4020   25.5090 C.3     8  SER8        0.1924
     11  C         29.3500   35.1580   24.2430 C.2     8  SER8        0.2314
     12  O         29.9370   34.9240   23.1940 O.2     8  SER8       -0.2863
     13  CB        29.0930   32.9970   25.4530 C.3     8  SER8        0.2116
     14  OG        27.6970   33.0300   25.7270 O.3     8  SER8       -0.2180
     15  N         24.7080   39.4070   24.3000 N.3    11  GLY11      -0.1225
     16  CA        23.5870   39.5220   25.1950 C.3    11  GLY11       0.1811
     17  C         23.9390   40.3480   26.4410 C.2    11  GLY11       0.2280
     18  O         23.0880   41.0650   26.9320 O.2    11  GLY11      -0.2866
     19  N         23.1550   44.2240   27.2510 N.3    14  THR14      -0.1203
     20  CA        21.8850   44.6980   27.8200 C.3    14  THR14       0.1994
     21  C         22.1700   45.0420   29.2910 C.2    14  THR14       0.2617
     22  O         21.9650   46.1690   29.7110 O.2    14  THR14      -0.2717
     23  CB        20.7430   43.6070   27.7580 C.3    14  THR14       0.1784
     24  OG1       20.5210   43.2140   26.4090 O.3    14  THR14      -0.2211
     25  CG2       19.4240   44.1640   28.2690 C.3    14  THR14       0.0376
     26  N         22.6370   44.0680   30.0740 N.am   15  VAL15      -0.1979
     27  CA        22.9980   44.3240   31.4810 C.3    15  VAL15       0.1595
     28  C         23.9500   45.5320   31.5370 C.2    15  VAL15       0.2287
     29  O         23.7200   46.4600   32.3190 O.2    15  VAL15      -0.2864
     30  CB        23.7670   43.1330   32.1450 C.3    15  VAL15       0.0276
     31  CG1       24.0210   43.4670   33.6280 C.3    15  VAL15       0.0022
     32  CG2       22.9650   41.8410   32.0620 C.3    15  VAL15       0.0022
     33  N         27.2150   37.8560   33.0480 N.3    69  ALA69      -0.1231
     34  CA        25.8310   38.0130   32.5770 C.3    69  ALA69       0.1694
     35  C         25.2140   36.8330   31.8730 C.2    69  ALA69       0.2592
     36  O         24.0620   36.8540   31.5320 O.2    69  ALA69      -0.2718
     37  CB        25.7400   39.2340   31.7350 C.3    69  ALA69       0.0304
     38  N         25.9800   35.7630   31.7830 N.am   70  CYS70      -0.1956
     39  CA        25.6150   34.5290   31.1180 C.3    70  CYS70       0.1843
     40  C         24.9890   33.5900   32.1250 C.2    70  CYS70       0.2625
     41  O         25.5990   33.2730   33.1340 O.2    70  CYS70      -0.2714
     42  CB        26.9200   33.8880   30.5110 C.3    70  CYS70       0.0997
     43  SG        26.7920   32.4090   29.3710 S.3    70  CYS70      -0.0797
     44  N         23.8010   33.0800   31.8100 N.am   71  ASN71      -0.1958
     45  CA        23.1190   32.1390   32.6610 C.3    71  ASN71       0.1819
     46  C         23.9350   30.8830   32.8870 C.2    71  ASN71       0.2621
     47  O         24.1840   30.5110   34.0370 O.2    71  ASN71      -0.2715
     48  CB        21.7750   31.7830   32.0700 C.3    71  ASN71       0.1195
     49  CG        20.6340   32.5060   32.7440 C.2    71  ASN71       0.2630
     50  OD1       20.4480   33.7220   32.5820 O.2    71  ASN71      -0.2716
     51  ND2       19.8370   31.7690   33.4650 N.am   71  ASN71      -0.0877
     52  N         24.3740   30.2310   31.8030 N.am   72  THR72      -0.1951
     53  CA        25.1560   29.0060   31.9040 C.3    72  THR72       0.1897
     54  C         26.4450   29.1090   32.7440 C.2    72  THR72       0.2313
     55  O         26.8100   28.1830   33.4930 O.2    72  THR72      -0.2863
     56  CB        25.4520   28.4550   30.4510 C.3    72  THR72       0.1794
     57  OG1       24.2530   27.9420   29.8800 O.3    72  THR72      -0.2208
     58  CG2       26.4370   27.3630   30.4610 C.3    72  THR72       0.0378
     59  N         23.8460   36.2170   37.0720 N.3    92  VAL92      -0.1245
     60  CA        22.5200   36.6690   36.7070 C.3    92  VAL92       0.1561
     61  C         21.3620   35.8220   37.2850 C.2    92  VAL92       0.2260
     62  O         20.1980   36.2260   37.2280 O.2    92  VAL92      -0.2867
     63  CB        22.4560   36.8090   35.1610 C.3    92  VAL92       0.0252
     64  CG1       22.3340   35.4640   34.5230 C.3    92  VAL92       0.0019
     65  CG2       21.4000   37.7850   34.7370 C.3    92  VAL92       0.0019
     66  N         18.5010   27.6800   29.0500 N.3   114  THR114     -0.1218
     67  CA        19.3010   26.9430   28.0900 C.3   114  THR114      0.1862
     68  C         19.4080   25.4870   28.6080 C.2   114  THR114      0.2287
     69  O         19.3980   25.2540   29.8140 O.2   114  THR114     -0.2866
     70  CB        20.6680   27.6560   27.9430 C.3   114  THR114      0.1770
     71  OG1       20.7200   28.3310   26.6890 O.3   114  THR114     -0.2211
     72  CG2       21.8060   26.7410   28.0820 C.3   114  THR114      0.0375
     73  N         21.8410   25.3930   31.3240 N.3   117  THR117     -0.1218
     74  CA        21.5060   26.1350   32.5520 C.3   117  THR117      0.1862
     75  C         20.3430   25.4540   33.2630 C.2   117  THR117      0.2287
     76  O         20.3230   25.3660   34.4970 O.2   117  THR117     -0.2866
     77  CB        21.2300   27.6550   32.3460 C.3   117  THR117      0.1770
     78  OG1       19.8480   27.9470   32.5410 O.3   117  THR117     -0.2211
     79  CG2       21.6510   28.1170   31.0080 C.3   117  THR117      0.0375
     80  N         12.8960   34.4280   32.4050 N.3   176  LEU176     -0.1231
     81  CA        13.2110   34.1710   31.0200 C.3   176  LEU176      0.1693
     82  C         14.7050   33.9450   30.9250 C.2   176  LEU176      0.2593
     83  O         15.4610   34.8320   30.5180 O.2   176  LEU176     -0.2718
     84  CB        12.7700   35.3680   30.1750 C.3   176  LEU176      0.0284
     85  CG        12.3110   35.1350   28.7540 C.3   176  LEU176      0.0019
     86  CD1       11.4970   33.8510   28.6650 C.3   176  LEU176      0.0001
     87  CD2       11.5130   36.3470   28.2880 C.3   176  LEU176      0.0001
     88  N         15.1120   32.7390   31.3270 N.am  177  GLY177     -0.1942
     89  CA        16.5100   32.3790   31.3240 C.3   177  GLY177      0.2014
     90  C         17.0790   32.7770   29.9990 C.2   177  GLY177      0.2639
     91  O         18.0880   33.4630   29.9340 O.2   177  GLY177     -0.2714
     92  N         16.3810   32.4080   28.9370 N.am  178  CYS178     -0.1967
     93  CA        16.8220   32.7580   27.6050 C.3   178  CYS178      0.1712
     94  C         15.7430   32.4840   26.5740 C.2   178  CYS178      0.2296
     95  O         15.0320   31.4900   26.6430 O.2   178  CYS178     -0.2864
     96  CB        18.0780   31.9790   27.2770 C.3   178  CYS178      0.0983
     97  SG        19.1510   31.8430   28.6830 S.3   178  CYS178     -0.0798
     98  N         14.7840   32.0660   22.4910 N.3   180  HIS180     -0.1241
     99  CA        15.2140   31.7460   21.1300 C.3   180  HIS180      0.1621
    100  C         13.9620   31.3420   20.3680 C.2   180  HIS180      0.2264
    101  O         13.1840   30.5140   20.8340 O.2   180  HIS180     -0.2867
    102  CB        16.2100   30.5800   21.1090 C.3   180  HIS180      0.0745
    103  CG        17.6370   30.9990   20.9560 C.ar  180  HIS180      0.0817
    104  ND1       18.6780   30.3070   21.5350 N.ar  180  HIS180     -0.2268
    105  CD2       18.1960   32.0360   20.2870 C.ar  180  HIS180      0.1154
    106  CE1       19.8170   30.9010   21.2290 C.ar  180  HIS180      0.1986
    107  NE2       19.5520   31.9510   20.4730 N.ar  180  HIS180     -0.2212
    108  N         15.8090   40.0310   34.3870 N.3   200  SER200     -0.1202
    109  CA        17.0590   39.5730   34.9620 C.3   200  SER200      0.2020
    110  C         18.1800   40.5810   34.8450 C.2   200  SER200      0.2619
    111  O         19.1080   40.5590   35.6380 O.2   200  SER200     -0.2717
    112  CB        17.5060   38.3160   34.2370 C.3   200  SER200      0.2103
    113  OG        16.5170   37.3040   34.2900 O.3   200  SER200     -0.2182
    114  N         18.0880   41.4440   33.8440 N.am  201  SER201     -0.1951
    115  CA        19.1040   42.4410   33.5610 C.3   201  SER201      0.1924
    116  C         19.0150   43.6230   34.5150 C.2   201  SER201      0.2314
    117  O         20.0270   44.0910   35.0500 O.2   201  SER201     -0.2863
    118  CB        18.9610   42.8850   32.1000 C.3   201  SER201      0.2116
    119  OG        19.7990   43.9740   31.7940 O.3   201  SER201     -0.2180
@<TRIPOS>BOND
     1   105   107   ar
     2   105   103   ar
     3   100   101    2
     4   100    99    1
     5   107   106   ar
     6   103   102    1
     7   103   104   ar
     8   102    99    1
     9    99    98    1
    10   106   104   ar
    11    12    11    2
    12    11    10    1
    13    15    16    1
    14    16    17    1
    15    13    10    1
    16    13    14    1
    17    10     9    1
    18    24    23    1
    19    17    18    2
    20    94    95    2
    21    94    93    1
    22     4     3    2
    23     9     3   am
    24    71    70    1
    25     3     2    1
    26     8     6   ar
    27    19    20    1
    28    96    93    1
    29    96    97    1
    30    93    92    1
    31     6     5    1
    32     6     7   ar
    33    23    20    1
    34    23    25    1
    35     5     2    1
    36    20    21    1
    37    70    72    1
    38    70    67    1
    39    67    68    1
    40    67    66    1
    41    87    85    1
    42     2     1    1
    43    68    69    2
    44    86    85    1
    45    85    84    1
    46    92    90   am
    47    21    22    2
    48    21    26   am
    49    43    42    1
    50    57    56    1
    51    91    90    2
    52    90    89    1
    53    26    27    1
    54    84    81    1
    55    56    58    1
    56    56    53    1
    57    42    39    1
    58    83    82    2
    59    82    81    1
    60    82    88   am
    61    79    77    1
    62    81    80    1
    63    39    38    1
    64    39    40    1
    65    89    88    1
    66    73    74    1
    67    27    28    1
    68    27    30    1
    69    36    35    2
    70    28    29    2
    71    37    34    1
    72    38    35   am
    73   119   118    1
    74    52    53    1
    75    52    46   am
    76    44    40   am
    77    44    45    1
    78    35    34    1
    79    53    54    1
    80    32    30    1
    81    48    45    1
    82    48    49    1
    83   118   115    1
    84    40    41    2
    85    30    31    1
    86    77    78    1
    87    77    74    1
    88    74    75    1
    89    34    33    1
    90    50    49    2
    91    45    46    1
    92    54    55    2
    93    49    51   am
    94    46    47    2
    95    75    76    2
    96   115   114    1
    97   115   116    1
    98   114   110   am
    99   112   113    1
   100   112   109    1
   101   108   109    1
   102   116   117    2
   103    64    63    1
   104    65    63    1
   105   110   109    1
   106   110   111    2
   107    63    60    1
   108    60    59    1
   109    60    61    1
   110    62    61    2
