@<TRIPOS>MOLECULE
tmp/1b76A00.pdb
 189 179 0 0 0
SMALL
GASTEIGER

@<TRIPOS>ATOM
      1  N         23.3190   23.7860   42.3060 N.3   125  GLU125     -0.1245
      2  CA        22.4670   24.6590   41.5130 C.3   125  GLU125      0.1567
      3  C         21.5140   25.3610   42.4580 C.2   125  GLU125      0.2260
      4  O         21.1260   24.7960   43.5000 O.2   125  GLU125     -0.2867
      5  CB        21.6500   23.8220   40.5240 C.3   125  GLU125      0.0388
      6  CG        20.8110   22.7020   41.2020 C.3   125  GLU125      0.1160
      7  CD        19.9620   21.8870   40.2280 C.2   125  GLU125      0.3649
      8  OE1       20.5140   21.2220   39.3150 O.co2 125  GLU125     -0.2457
      9  OE2       18.7340   21.8950   40.4120 O.co2 125  GLU125     -0.2457
     10  N         30.2250   23.7180   41.7990 N.3   157  ARG157     -0.1245
     11  CA        30.2230   22.4810   41.0660 C.3   157  ARG157      0.1563
     12  C         31.6480   22.1060   40.8110 C.2   157  ARG157      0.2260
     13  O         32.3020   22.7280   39.9960 O.2   157  ARG157     -0.2867
     14  CB        29.5050   22.7320   39.7750 C.3   157  ARG157      0.0307
     15  CG        29.1990   21.5110   39.0400 C.3   157  ARG157      0.0489
     16  CD        28.3710   21.8440   37.8490 C.3   157  ARG157      0.2205
     17  NE        27.0760   22.3130   38.3000 N.pl3 157  ARG157     -0.0865
     18  CZ        26.0330   22.4330   37.4940 C.cat 157  ARG157      0.5346
     19  NH1       26.1680   22.1210   36.2010 N.pl3 157  ARG157      0.1354
     20  NH2       24.8550   22.8250   37.9890 N.pl3 157  ARG157      0.1354
     21  N         33.9290   20.5590   38.9840 N.3   159  GLU159     -0.1245
     22  CA        34.4390   19.9930   37.7410 C.3   159  GLU159      0.1567
     23  C         35.8430   19.4320   37.8370 C.2   159  GLU159      0.2260
     24  O         36.7360   20.0600   38.3990 O.2   159  GLU159     -0.2867
     25  CB        34.3990   21.0260   36.6270 C.3   159  GLU159      0.0388
     26  CG        33.3880   20.7300   35.5740 C.3   159  GLU159      0.1160
     27  CD        31.9620   20.8920   36.0600 C.2   159  GLU159      0.3649
     28  OE1       31.7890   21.1880   37.2560 O.co2 159  GLU159     -0.2457
     29  OE2       31.0140   20.7400   35.2470 O.co2 159  GLU159     -0.2457
     30  N         36.0050   31.6960   31.6870 N.3   166  ILE166     -0.1231
     31  CA        34.7690   31.8390   32.4470 C.3   166  ILE166      0.1692
     32  C         33.7250   30.7610   32.1380 C.2   166  ILE166      0.2592
     33  O         32.8490   30.4790   32.9520 O.2   166  ILE166     -0.2718
     34  CB        34.2220   33.2960   32.2430 C.3   166  ILE166      0.0266
     35  CG1       35.2120   34.2690   32.8690 C.3   166  ILE166      0.0019
     36  CG2       32.8400   33.5030   32.8380 C.3   166  ILE166      0.0020
     37  CD1       35.7830   33.7610   34.1910 C.3   166  ILE166      0.0001
     38  N         33.8790   30.0890   31.0010 N.am  167  PHE167     -0.1962
     39  CA        32.9270   29.0630   30.6050 C.3   167  PHE167      0.1771
     40  C         32.6630   27.8920   31.5660 C.2   167  PHE167      0.2619
     41  O         31.5020   27.6750   31.9220 O.2   167  PHE167     -0.2715
     42  CB        33.2380   28.5660   29.2080 C.3   167  PHE167      0.0574
     43  CG        32.1230   27.7920   28.5930 C.ar  167  PHE167     -0.0200
     44  CD1       30.8610   27.7840   29.1640 C.ar  167  PHE167     -0.0042
     45  CD2       32.3360   27.0440   27.4550 C.ar  167  PHE167     -0.0042
     46  CE1       29.8460   27.0430   28.6120 C.ar  167  PHE167     -0.0003
     47  CE2       31.3200   26.3050   26.9050 C.ar  167  PHE167     -0.0003
     48  CZ        30.0690   26.3080   27.4910 C.ar  167  PHE167     -0.0000
     49  N         33.6970   27.1190   31.9360 N.am  168  ARG168     -0.1963
     50  CA        33.5460   25.9840   32.8750 C.3   168  ARG168      0.1729
     51  C         34.2720   26.0930   34.2250 C.2   168  ARG168      0.2616
     52  O         35.3790   25.5700   34.3700 O.2   168  ARG168     -0.2715
     53  CB        33.9540   24.6720   32.2130 C.3   168  ARG168      0.0348
     54  CG        34.0630   23.5070   33.2000 C.3   168  ARG168      0.0492
     55  CD        33.9820   22.1400   32.5320 C.3   168  ARG168      0.2205
     56  NE        32.5990   21.6680   32.4810 N.pl3 168  ARG168     -0.0865
     57  CZ        31.9650   21.2960   31.3700 C.cat 168  ARG168      0.5346
     58  NH1       32.5870   21.3270   30.1910 N.pl3 168  ARG168      0.1354
     59  NH2       30.6890   20.9280   31.4360 N.pl3 168  ARG168      0.1354
     60  N         33.6230   26.6910   35.2290 N.am  169  VAL169     -0.1977
     61  CA        34.2370   26.8500   36.5570 C.3   169  VAL169      0.1596
     62  C         33.5850   26.0730   37.6790 C.2   169  VAL169      0.2287
     63  O         32.4360   25.6450   37.5600 O.2   169  VAL169     -0.2864
     64  CB        34.2960   28.3170   37.0310 C.3   169  VAL169      0.0276
     65  CG1       35.4990   29.0190   36.4440 C.3   169  VAL169      0.0022
     66  CG2       32.9990   29.0260   36.7040 C.3   169  VAL169      0.0022
     67  N         30.3540   29.4850   40.4760 N.3   172  PHE172     -0.1241
     68  CA        29.6460   30.3960   39.5920 C.3   172  PHE172      0.1605
     69  C         28.2890   30.6790   40.1980 C.2   172  PHE172      0.2264
     70  O         27.9650   30.1980   41.2930 O.2   172  PHE172     -0.2867
     71  CB        29.4980   29.7970   38.1820 C.3   172  PHE172      0.0534
     72  CG        28.8430   28.4300   38.1540 C.ar  172  PHE172     -0.0203
     73  CD1       27.4650   28.2930   38.2910 C.ar  172  PHE172     -0.0042
     74  CD2       29.6070   27.2700   38.0380 C.ar  172  PHE172     -0.0042
     75  CE1       26.8590   27.0280   38.3210 C.ar  172  PHE172     -0.0003
     76  CE2       29.0040   26.0000   38.0660 C.ar  172  PHE172     -0.0003
     77  CZ        27.6320   25.8860   38.2100 C.ar  172  PHE172     -0.0000
     78  N         24.0290   31.6640   38.9400 N.3   174  GLN174     -0.1245
     79  CA        23.1300   31.5760   37.8150 C.3   174  GLN174      0.1566
     80  C         21.7510   31.9640   38.1810 C.2   174  GLN174      0.2260
     81  O         21.2480   31.5710   39.2100 O.2   174  GLN174     -0.2867
     82  CB        23.0880   30.1560   37.3260 C.3   174  GLN174      0.0367
     83  CG        23.6080   29.1990   38.3490 C.3   174  GLN174      0.0905
     84  CD        22.8000   27.9540   38.4320 C.2   174  GLN174      0.2608
     85  OE1       23.1740   26.9230   37.8810 O.2   174  GLN174     -0.2717
     86  NE2       21.6930   28.0250   39.1600 N.am  174  GLN174     -0.0878
     87  N         18.0690   31.4930   38.0060 N.3   176  GLU176     -0.1245
     88  CA        17.1370   30.4390   37.6450 C.3   176  GLU176      0.1567
     89  C         15.6790   30.7960   37.8550 C.2   176  GLU176      0.2260
     90  O         15.3360   31.5680   38.7380 O.2   176  GLU176     -0.2867
     91  CB        17.4670   29.1760   38.4330 C.3   176  GLU176      0.0388
     92  CG        18.7560   28.4930   37.9910 C.3   176  GLU176      0.1160
     93  CD        18.9980   27.1650   38.6910 C.2   176  GLU176      0.3649
     94  OE1       19.4120   27.2420   39.8580 O.co2 176  GLU176     -0.2457
     95  OE2       18.8130   26.0630   38.0870 O.co2 176  GLU176     -0.2457
     96  N         18.1340   19.1730   22.8830 N.3   216  GLN216     -0.1245
     97  CA        18.7460   17.9070   23.2590 C.3   216  GLN216      0.1566
     98  C         17.7810   16.7280   23.1350 C.2   216  GLN216      0.2260
     99  O         16.6820   16.7310   23.7020 O.2   216  GLN216     -0.2867
    100  CB        19.4450   17.9750   24.6120 C.3   216  GLN216      0.0367
    101  CG        18.6950   18.6270   25.7540 C.3   216  GLN216      0.0905
    102  CD        19.6220   18.9050   26.9500 C.2   216  GLN216      0.2608
    103  OE1       19.2160   18.8500   28.1240 O.2   216  GLN216     -0.2717
    104  NE2       20.8890   19.1970   26.6470 N.am  216  GLN216     -0.0878
    105  N         15.3740   14.2490   34.9350 N.3   224  TYR224     -0.1241
    106  CA        14.3030   15.1360   35.3630 C.3   224  TYR224      0.1605
    107  C         13.6190   15.9220   34.2610 C.2   224  TYR224      0.2264
    108  O         12.4600   16.2900   34.3610 O.2   224  TYR224     -0.2867
    109  CB        14.7840   16.0110   36.5200 C.3   224  TYR224      0.0534
    110  CG        15.8670   16.9820   36.1690 C.ar  224  TYR224     -0.0201
    111  CD1       17.0760   16.5720   35.6550 C.ar  224  TYR224     -0.0009
    112  CD2       15.6920   18.3090   36.3990 C.ar  224  TYR224     -0.0009
    113  CE1       18.1060   17.5090   35.3790 C.ar  224  TYR224      0.0417
    114  CE2       16.7010   19.2570   36.1400 C.ar  224  TYR224      0.0417
    115  CZ        17.8880   18.8590   35.6350 C.ar  224  TYR224      0.1957
    116  OH        18.8470   19.8020   35.4070 O.3   224  TYR224     -0.2866
    117  N         26.6770   25.8750   25.3230 N.3   241  GLU241     -0.1231
    118  CA        25.5020   26.2700   26.1490 C.3   241  GLU241      0.1699
    119  C         25.5540   27.6420   26.8600 C.2   241  GLU241      0.2592
    120  O         26.5730   28.0050   27.4510 O.2   241  GLU241     -0.2718
    121  CB        25.2120   25.1630   27.1870 C.3   241  GLU241      0.0402
    122  CG        23.8790   25.2600   27.9440 C.3   241  GLU241      0.1161
    123  CD        23.4690   23.9390   28.6330 C.2   241  GLU241      0.3649
    124  OE1       24.2490   22.9590   28.6010 O.co2 241  GLU241     -0.2457
    125  OE2       22.3540   23.8760   29.2030 O.co2 241  GLU241     -0.2457
    126  N         24.4800   28.4230   26.7580 N.am  242  LEU242     -0.1966
    127  CA        24.4230   29.7150   27.4430 C.3   242  LEU242      0.1728
    128  C         23.3300   29.6480   28.5090 C.2   242  LEU242      0.2616
    129  O         23.5240   30.0700   29.6390 O.2   242  LEU242     -0.2715
    130  CB        24.1770   30.8820   26.4820 C.3   242  LEU242      0.0311
    131  CG        24.0650   32.2820   27.1150 C.3   242  LEU242      0.0022
    132  CD1       25.2920   32.6040   27.9350 C.3   242  LEU242      0.0001
    133  CD2       23.8820   33.3570   26.0800 C.3   242  LEU242      0.0001
    134  N         22.1720   29.1330   28.1470 N.am  243  GLU243     -0.1963
    135  CA        21.0860   28.9970   29.0910 C.3   243  GLU243      0.1733
    136  C         20.4830   27.6650   28.7080 C.2   243  GLU243      0.2616
    137  O         20.7070   27.2020   27.5890 O.2   243  GLU243     -0.2715
    138  CB        20.0810   30.1330   28.8940 C.3   243  GLU243      0.0429
    139  CG        18.8640   30.0880   29.8340 C.3   243  GLU243      0.1163
    140  CD        18.1040   31.4260   29.9620 C.2   243  GLU243      0.3649
    141  OE1       17.9980   32.1680   28.9540 O.co2 243  GLU243     -0.2457
    142  OE2       17.6000   31.7250   31.0800 O.co2 243  GLU243     -0.2457
    143  N         19.7560   27.0240   29.6140 N.am  244  GLY244     -0.1955
    144  CA        19.1540   25.7540   29.2780 C.3   244  GLY244      0.1869
    145  C         17.7220   25.7550   29.7580 C.2   244  GLY244      0.2309
    146  O         17.4740   25.6600   30.9610 O.2   244  GLY244     -0.2863
    147  N         11.9720   25.2410   33.4600 N.3   296  GLU296     -0.1245
    148  CA        13.0770   25.8890   34.1510 C.3   296  GLU296      0.1567
    149  C         14.1150   26.5320   33.2370 C.2   296  GLU296      0.2260
    150  O         14.8900   25.8400   32.5660 O.2   296  GLU296     -0.2867
    151  CB        13.7720   24.8720   35.0810 C.3   296  GLU296      0.0388
    152  CG        14.7420   25.4580   36.0930 C.3   296  GLU296      0.1160
    153  CD        16.0060   24.6610   36.2300 C.2   296  GLU296      0.3649
    154  OE1       16.5290   24.2300   35.1870 O.co2 296  GLU296     -0.2457
    155  OE2       16.4940   24.5000   37.3660 O.co2 296  GLU296     -0.2457
    156  N         17.3830   27.9930   33.0720 N.3   298  SER298     -0.1202
    157  CA        18.5760   28.1180   33.8990 C.3   298  SER298      0.2020
    158  C         19.6550   28.7720   33.0610 C.2   298  SER298      0.2619
    159  O         20.0230   28.2410   32.0190 O.2   298  SER298     -0.2717
    160  CB        19.0270   26.7330   34.3610 C.3   298  SER298      0.2103
    161  OG        19.9410   26.8010   35.4440 O.3   298  SER298     -0.2182
    162  N         20.1470   29.9280   33.5040 N.am  299  ALA299     -0.1965
    163  CA        21.1690   30.6710   32.7660 C.3   299  ALA299      0.1728
    164  C         22.3750   31.0440   33.5930 C.2   299  ALA299      0.2616
    165  O         22.2240   31.6700   34.6380 O.2   299  ALA299     -0.2715
    166  CB        20.5700   31.9220   32.2130 C.3   299  ALA299      0.0334
    167  N         23.5680   30.7160   33.1030 N.am  300  GLY300     -0.1955
    168  CA        24.7730   31.0490   33.8340 C.3   300  GLY300      0.1869
    169  C         25.0220   32.5430   33.7370 C.2   300  GLY300      0.2309
    170  O         25.0500   33.0760   32.6360 O.2   300  GLY300     -0.2863
    171  N         27.7770   34.0760   34.6370 N.3   302  ASP302     -0.1225
    172  CA        29.1710   34.1960   34.2000 C.3   302  ASP302      0.1805
    173  C         29.3300   33.9890   32.7090 C.2   302  ASP302      0.2597
    174  O         30.1320   34.6790   32.0590 O.2   302  ASP302     -0.2718
    175  CB        30.0400   33.1950   34.9240 C.3   302  ASP302      0.1424
    176  CG        30.0900   33.4460   36.4060 C.2   302  ASP302      0.3668
    177  OD1       30.9450   34.2490   36.8370 O.co2 302  ASP302     -0.2456
    178  OD2       29.2710   32.8450   37.1470 O.co2 302  ASP302     -0.2456
    179  N         28.6100   33.0030   32.1770 N.am  303  ARG303     -0.1979
    180  CA        28.6480   32.7170   30.7400 C.3   303  ARG303      0.1597
    181  C         27.9210   33.8190   29.9520 C.2   303  ARG303      0.2287
    182  O         28.2940   34.1160   28.8240 O.2   303  ARG303     -0.2864
    183  CB        28.0240   31.3450   30.4100 C.3   303  ARG303      0.0334
    184  CG        28.8640   30.1220   30.7880 C.3   303  ARG303      0.0492
    185  CD        28.0800   28.8280   30.6450 C.3   303  ARG303      0.2205
    186  NE        28.8650   27.6930   31.1100 N.pl3 303  ARG303     -0.0865
    187  CZ        28.4590   26.4330   31.0700 C.cat 303  ARG303      0.5346
    188  NH1       27.2600   26.1260   30.5980 N.pl3 303  ARG303      0.1354
    189  NH2       29.2930   25.4700   31.4040 N.pl3 303  ARG303      0.1354
@<TRIPOS>BOND
     1    96    97    1
     2    98    97    1
     3    98    99    2
     4    97   100    1
     5   100   101    1
     6   117   118    1
     7   101   102    1
     8   133   131    1
     9   118   119    1
    10   118   121    1
    11   130   131    1
    12   130   127    1
    13   104   102   am
    14   126   119   am
    15   126   127    1
    16   119   120    2
    17    47    45   ar
    18    47    48   ar
    19   102   103    2
    20   131   132    1
    21   121   122    1
    22   127   128    1
    23    45    43   ar
    24    48    46   ar
    25   137   136    2
    26   122   123    1
    27   134   128   am
    28   134   135    1
    29   128   129    2
    30    43    44   ar
    31    43    42    1
    32   124   123   ar
    33    46    44   ar
    34   123   125   ar
    35   136   135    1
    36   136   143   am
    37   182   181    2
    38   138   135    1
    39   138   139    1
    40   141   140   ar
    41    42    39    1
    42   144   143    1
    43   144   145    1
    44   145   146    2
    45   139   140    1
    46   181   180    1
    47   140   142   ar
    48    58    57    1
    49   183   180    1
    50   183   184    1
    51   188   187    1
    52    39    38    1
    53    39    40    1
    54   185   184    1
    55   185   186    1
    56   180   179    1
    57    38    32   am
    58   187   186    2
    59   187   189    1
    60    57    59    1
    61    57    56    2
    62    40    41    2
    63    40    49   am
    64    30    31    1
    65    49    50    1
    66   159   158    2
    67   174   173    2
    68    32    31    1
    69    32    33    2
    70   179   173   am
    71    53    50    1
    72    53    54    1
    73   166   163    1
    74    34    31    1
    75    34    36    1
    76    34    35    1
    77    56    55    1
    78    55    54    1
    79   150   149    2
    80   170   169    2
    81   173   172    1
    82   163   162    1
    83   163   164    1
    84    35    37    1
    85    50    51    1
    86   158   162   am
    87   158   157    1
    88   156   157    1
    89   167   164   am
    90   167   168    1
    91   149   148    1
    92   147   148    1
    93   164   165    2
    94   169   168    1
    95   157   160    1
    96   148   151    1
    97   172   171    1
    98   172   175    1
    99    51    52    2
   100    51    60   am
   101   107   108    2
   102   107   106    1
   103   160   161    1
   104   175   176    1
   105   105   106    1
   106   151   152    1
   107   154   153   ar
   108    60    61    1
   109    29    27   ar
   110   106   109    1
   111   113   115   ar
   112   113   111   ar
   113   116   115    1
   114    26    27    1
   115    26    25    1
   116   115   114   ar
   117   111   110   ar
   118    27    28   ar
   119   152   153    1
   120   114   112   ar
   121   110   112   ar
   122   110   109    1
   123    19    18    1
   124   153   155   ar
   125   176   177   ar
   126   176   178   ar
   127    65    64    1
   128    61    64    1
   129    61    62    1
   130    25    22    1
   131    66    64    1
   132    82    79    1
   133    82    83    1
   134    18    20    1
   135    18    17    2
   136    63    62    2
   137    88    89    1
   138    88    87    1
   139    88    91    1
   140    22    23    1
   141    22    21    1
   142    79    80    1
   143    79    78    1
   144    23    24    2
   145    16    17    1
   146    16    15    1
   147    89    90    2
   148    85    84    2
   149    92    91    1
   150    92    93    1
   151    74    76   ar
   152    74    72   ar
   153    76    77   ar
   154    95    93   ar
   155    72    71    1
   156    72    73   ar
   157    80    81    2
   158    71    68    1
   159    77    75   ar
   160    73    75   ar
   161    83    84    1
   162    84    86   am
   163    93    94   ar
   164    15    14    1
   165     8     7   ar
   166    68    69    1
   167    68    67    1
   168    14    11    1
   169    13    12    2
   170    69    70    2
   171     7     9   ar
   172     7     6    1
   173     5     6    1
   174     5     2    1
   175    12    11    1
   176    11    10    1
   177     2     1    1
   178     2     3    1
   179     3     4    2
