@<TRIPOS>MOLECULE
tmp/1b87A00.pdb
 237 237 0 0 0
SMALL
GASTEIGER

@<TRIPOS>ATOM
      1  N         57.3540   23.3450   37.5110 N.3    24  THR24      -0.1203
      2  CA        57.7210   23.5820   36.1170 C.3    24  THR24       0.1994
      3  C         59.2240   23.3750   35.8950 C.2    24  THR24       0.2617
      4  O         59.6240   22.6830   34.9630 O.2    24  THR24      -0.2717
      5  CB        57.2990   24.9940   35.6570 C.3    24  THR24       0.1784
      6  OG1       55.9290   25.2140   36.0030 O.3    24  THR24      -0.2211
      7  CG2       57.4380   25.1300   34.1500 C.3    24  THR24       0.0376
      8  N         60.0510   23.9720   36.7520 N.am   25  TRP25      -0.1975
      9  CA        61.5060   23.8230   36.6520 C.3    25  TRP25       0.1640
     10  C         62.1190   23.3320   37.9680 C.2    25  TRP25       0.2290
     11  O         62.8000   24.0880   38.6690 O.2    25  TRP25      -0.2864
     12  CB        62.1770   25.1340   36.2400 C.3    25  TRP25       0.0576
     13  CG        61.7380   25.6430   34.9180 C.ar   25  TRP25       0.0006
     14  CD1       62.0780   25.1490   33.6940 C.ar   25  TRP25       0.0946
     15  CD2       60.8590   26.7450   34.6790 C.ar   25  TRP25       0.0152
     16  NE1       61.4630   25.8740   32.7010 N.ar   25  TRP25      -0.2442
     17  CE2       60.7070   26.8600   33.2750 C.ar   25  TRP25       0.0810
     18  CE3       60.1830   27.6460   35.5140 C.ar   25  TRP25       0.0012
     19  CZ2       59.9030   27.8410   32.6830 C.ar   25  TRP25       0.0191
     20  CZ3       59.3820   28.6250   34.9240 C.ar   25  TRP25       0.0001
     21  CH2       59.2490   28.7110   33.5160 C.ar   25  TRP25       0.0015
     22  N         63.6630   39.2810   30.6070 N.3    73  LEU73      -0.1231
     23  CA        62.3830   38.6730   30.9090 C.3    73  LEU73       0.1693
     24  C         62.6710   37.3580   31.6290 C.2    73  LEU73       0.2592
     25  O         63.0390   36.3560   31.0070 O.2    73  LEU73      -0.2718
     26  CB        61.5900   38.4540   29.6200 C.3    73  LEU73       0.0284
     27  CG        60.3090   37.6140   29.5420 C.3    73  LEU73       0.0019
     28  CD1       59.5850   37.4980   30.8510 C.3    73  LEU73       0.0001
     29  CD2       59.4120   38.2410   28.4910 C.3    73  LEU73       0.0001
     30  N         62.5380   37.3900   32.9520 N.am   74  HIS74      -0.1962
     31  CA        62.7870   36.2230   33.7800 C.3    74  HIS74       0.1772
     32  C         62.0650   36.3670   35.1170 C.2    74  HIS74       0.2462
     33  O         62.3180   37.3190   35.8530 O.2    74  HIS74      -0.2730
     34  CB        64.2930   36.0710   34.0260 C.3    74  HIS74       0.0785
     35  CG        64.6600   34.8550   34.8230 C.ar   74  HIS74       0.0821
     36  ND1       64.7560   34.8660   36.1980 N.ar   74  HIS74      -0.2267
     37  CD2       64.9300   33.5840   34.4370 C.ar   74  HIS74       0.1154
     38  CE1       65.0650   33.6550   36.6270 C.ar   74  HIS74       0.1986
     39  NE2       65.1770   32.8590   35.5770 N.ar   74  HIS74      -0.2212
     40  N         61.1270   35.4500   35.4270 N.am   75  PRO75      -0.2716
     41  CA        60.7210   34.3150   34.5940 C.3    75  PRO75       0.1536
     42  C         59.3360   34.5410   33.9690 C.2    75  PRO75       0.2598
     43  O         58.7740   35.6320   34.0570 O.2    75  PRO75      -0.2715
     44  CB        60.6720   33.1830   35.6090 C.3    75  PRO75       0.0310
     45  CG        60.0310   33.8660   36.7730 C.3    75  PRO75       0.0237
     46  CD        60.6870   35.2400   36.8200 C.3    75  PRO75       0.0939
     47  N         58.8090   33.5020   33.3260 N.am   76  LEU76      -0.1964
     48  CA        57.4860   33.5340   32.7120 C.3    76  LEU76       0.1728
     49  C         56.9420   32.1150   32.7560 C.2    76  LEU76       0.2616
     50  O         57.4680   31.2050   32.0980 O.2    76  LEU76      -0.2715
     51  CB        57.5380   34.0320   31.2670 C.3    76  LEU76       0.0311
     52  CG        56.2370   33.8630   30.4620 C.3    76  LEU76       0.0022
     53  CD1       55.0850   34.6480   31.0940 C.3    76  LEU76       0.0001
     54  CD2       56.4600   34.3070   29.0340 C.3    76  LEU76       0.0001
     55  N         55.8920   31.9320   33.5470 N.am   77  VAL77      -0.1963
     56  CA        55.2790   30.6240   33.7020 C.3    77  VAL77       0.1727
     57  C         53.7650   30.7070   33.8540 C.2    77  VAL77       0.2616
     58  O         53.2470   31.5910   34.5380 O.2    77  VAL77      -0.2715
     59  CB        55.9100   29.8580   34.9130 C.3    77  VAL77       0.0290
     60  CG1       55.8460   30.7050   36.1840 C.3    77  VAL77       0.0023
     61  CG2       55.2390   28.5040   35.1120 C.3    77  VAL77       0.0023
     62  N         53.0670   29.8210   33.1490 N.am   78  VAL78      -0.1977
     63  CA        51.6110   29.7360   33.2090 C.3    78  VAL78       0.1596
     64  C         51.2630   28.3330   33.6950 C.2    78  VAL78       0.2287
     65  O         51.9080   27.3610   33.2970 O.2    78  VAL78      -0.2864
     66  CB        50.9640   29.9660   31.8240 C.3    78  VAL78       0.0276
     67  CG1       49.4560   29.8520   31.9260 C.3    78  VAL78       0.0022
     68  CG2       51.3520   31.3330   31.2790 C.3    78  VAL78       0.0022
     69  N         46.2740   25.9080   32.2780 N.3    82  ARG82      -0.1231
     70  CA        45.8290   27.2120   31.7930 C.3    82  ARG82       0.1694
     71  C         46.5360   27.7340   30.5440 C.2    82  ARG82       0.2592
     72  O         46.3090   28.8710   30.1240 O.2    82  ARG82      -0.2718
     73  CB        45.9940   28.2390   32.9170 C.3    82  ARG82       0.0321
     74  CG        45.0450   28.0600   34.0770 C.3    82  ARG82       0.0489
     75  CD        43.6220   28.3660   33.6530 C.3    82  ARG82       0.2205
     76  NE        42.7370   28.4240   34.8090 N.pl3  82  ARG82      -0.0865
     77  CZ        41.9340   29.4440   35.0970 C.cat  82  ARG82       0.5346
     78  NH1       41.8860   30.5190   34.3110 N.pl3  82  ARG82       0.1354
     79  NH2       41.1910   29.3920   36.1970 N.pl3  82  ARG82       0.1354
     80  N         47.3710   26.9020   29.9370 N.am   83  ARG83      -0.1966
     81  CA        48.1270   27.3090   28.7580 C.3    83  ARG83       0.1729
     82  C         47.3320   27.3530   27.4500 C.2    83  ARG83       0.2616
     83  O         46.2480   26.7780   27.3520 O.2    83  ARG83      -0.2715
     84  CB        49.3760   26.4350   28.6350 C.3    83  ARG83       0.0348
     85  CG        50.1860   26.4730   29.9010 C.3    83  ARG83       0.0492
     86  CD        51.3800   25.5830   29.8520 C.3    83  ARG83       0.2205
     87  NE        52.1120   25.6530   31.1100 N.pl3  83  ARG83      -0.0865
     88  CZ        52.7990   24.6460   31.6380 C.cat  83  ARG83       0.5346
     89  NH1       52.8570   23.4770   31.0150 N.pl3  83  ARG83       0.1354
     90  NH2       53.3960   24.8020   32.8140 N.pl3  83  ARG83       0.1354
     91  N         47.8700   28.0840   26.4730 N.am   84  LYS84      -0.1963
     92  CA        47.2630   28.2600   25.1530 C.3    84  LYS84       0.1728
     93  C         45.9070   28.9600   25.2260 C.2    84  LYS84       0.2616
     94  O         45.0330   28.7380   24.3880 O.2    84  LYS84      -0.2715
     95  CB        47.1310   26.9170   24.4370 C.3    84  LYS84       0.0311
     96  CG        48.4400   26.1570   24.2870 C.3    84  LYS84       0.0038
     97  CD        49.4850   26.9610   23.5290 C.3    84  LYS84       0.0206
     98  CE        50.7260   26.1260   23.2770 C.3    84  LYS84       0.1093
     99  NZ        51.3150   25.6110   24.5430 N.3    84  LYS84      -0.1314
    100  N         45.7640   29.8430   26.2090 N.am   85  ASN85      -0.1958
    101  CA        44.5290   30.5840   26.4280 C.3    85  ASN85       0.1819
    102  C         44.8300   32.0960   26.5310 C.2    85  ASN85       0.2621
    103  O         44.0550   32.8700   27.0970 O.2    85  ASN85      -0.2715
    104  CB        43.8530   30.0480   27.7010 C.3    85  ASN85       0.1195
    105  CG        42.4180   30.5140   27.8550 C.2    85  ASN85       0.2630
    106  OD1       41.9590   30.7800   28.9700 O.2    85  ASN85      -0.2716
    107  ND2       41.6960   30.6100   26.7380 N.am   85  ASN85      -0.0877
    108  N         45.9840   32.4850   25.9900 N.am   86  GLN86      -0.1963
    109  CA        46.4650   33.8680   25.9410 C.3    86  GLN86       0.1733
    110  C         47.0050   34.5350   27.1860 C.2    86  GLN86       0.2616
    111  O         47.3430   35.7160   27.1380 O.2    86  GLN86      -0.2715
    112  CB        45.4350   34.7900   25.2980 C.3    86  GLN86       0.0408
    113  CG        45.2470   34.5540   23.8160 C.3    86  GLN86       0.0908
    114  CD        44.3200   35.5720   23.1970 C.2    86  GLN86       0.2608
    115  OE1       43.3250   35.9780   23.8060 O.2    86  GLN86      -0.2717
    116  NE2       44.6440   36.0010   21.9810 N.am   86  GLN86      -0.0878
    117  N         47.1030   33.8130   28.2960 N.am   87  ILE87      -0.1963
    118  CA        47.6300   34.4300   29.5090 C.3    87  ILE87       0.1727
    119  C         49.0730   34.8810   29.2930 C.2    87  ILE87       0.2617
    120  O         49.4450   35.9700   29.7080 O.2    87  ILE87      -0.2715
    121  CB        47.5490   33.4970   30.7300 C.3    87  ILE87       0.0290
    122  CG1       46.0920   33.1150   31.0070 C.3    87  ILE87       0.0022
    123  CG2       48.1480   34.1890   31.9540 C.3    87  ILE87       0.0023
    124  CD1       45.9210   32.0880   32.1160 C.3    87  ILE87       0.0001
    125  N         49.8700   34.0510   28.6240 N.am   88  GLY88      -0.1940
    126  CA        51.2530   34.4000   28.3570 C.3    88  GLY88       0.2014
    127  C         51.3640   35.6840   27.5570 C.2    88  GLY88       0.2639
    128  O         52.1490   36.5720   27.8950 O.2    88  GLY88      -0.2714
    129  N         50.5670   35.7840   26.4970 N.am   89  THR89      -0.1950
    130  CA        50.5550   36.9670   25.6540 C.3    89  THR89       0.1897
    131  C         50.1700   38.2070   26.4600 C.2    89  THR89       0.2313
    132  O         50.8220   39.2440   26.3510 O.2    89  THR89      -0.2863
    133  CB        49.5830   36.8040   24.4610 C.3    89  THR89       0.1794
    134  OG1       50.0550   35.7640   23.5980 O.3    89  THR89      -0.2208
    135  CG2       49.4900   38.0950   23.6600 C.3    89  THR89       0.0378
    136  N         65.7500   37.8650   26.5480 N.3   109  LEU109     -0.1231
    137  CA        65.5760   36.6160   27.2650 C.3   109  LEU109      0.1693
    138  C         66.4290   35.5530   26.5880 C.2   109  LEU109      0.2593
    139  O         66.9060   35.7380   25.4700 O.2   109  LEU109     -0.2718
    140  CB        64.0980   36.2050   27.2120 C.3   109  LEU109      0.0284
    141  CG        63.6060   35.9180   25.7910 C.3   109  LEU109      0.0019
    142  CD1       63.4230   34.4120   25.6110 C.3   109  LEU109      0.0001
    143  CD2       62.3230   36.6610   25.5080 C.3   109  LEU109      0.0001
    144  N         66.6000   34.4320   27.2730 N.am  110  GLY110     -0.1942
    145  CA        67.3630   33.3300   26.7300 C.3   110  GLY110      0.2014
    146  C         66.5250   32.0820   26.8920 C.2   110  GLY110      0.2639
    147  O         66.0440   31.7860   27.9860 O.2   110  GLY110     -0.2714
    148  N         66.2930   31.3790   25.7940 N.am  111  THR111     -0.1950
    149  CA        65.5090   30.1600   25.8440 C.3   111  THR111      0.1897
    150  C         66.3100   29.0260   25.2100 C.2   111  THR111      0.2313
    151  O         66.6230   29.0690   24.0230 O.2   111  THR111     -0.2863
    152  CB        64.1290   30.3560   25.1710 C.3   111  THR111      0.1794
    153  OG1       63.3140   29.2130   25.4320 O.3   111  THR111     -0.2208
    154  CG2       64.2540   30.5710   23.6710 C.3   111  THR111      0.0378
    155  N         60.1140   25.0470   14.2400 N.3   138  ASN138     -0.1240
    156  CA        59.7160   24.4820   15.5230 C.3   138  ASN138      0.1653
    157  C         59.3430   23.0120   15.3590 C.2   138  ASN138      0.2266
    158  O         58.4070   22.6650   14.6350 O.2   138  ASN138     -0.2867
    159  CB        58.5430   25.2670   16.1150 C.3   138  ASN138      0.1155
    160  CG        58.4880   25.1870   17.6280 C.2   138  ASN138      0.2627
    161  OD1       59.1040   24.3220   18.2370 O.2   138  ASN138     -0.2716
    162  ND2       57.7650   26.1080   18.2400 N.am  138  ASN138     -0.0877
    163  N         57.1340   22.1770   19.7940 N.3   141  GLU141     -0.1231
    164  CA        56.4150   23.2100   20.5290 C.3   141  GLU141      0.1699
    165  C         57.3360   23.9960   21.4710 C.2   141  GLU141      0.2592
    166  O         57.0080   24.2290   22.6360 O.2   141  GLU141     -0.2718
    167  CB        55.2650   22.5500   21.3150 C.3   141  GLU141      0.0402
    168  CG        54.1500   23.4920   21.7760 C.3   141  GLU141      0.1161
    169  CD        53.3030   24.0420   20.6330 C.2   141  GLU141      0.3649
    170  OE1       53.4900   23.6220   19.4740 O.co2 141  GLU141     -0.2457
    171  OE2       52.4340   24.8990   20.8950 O.co2 141  GLU141     -0.2457
    172  N         58.4940   24.4000   20.9580 N.am  142  HIS142     -0.1962
    173  CA        59.4660   25.1610   21.7390 C.3   142  HIS142      0.1772
    174  C         58.9610   26.6040   21.8980 C.2   142  HIS142      0.2462
    175  O         58.5500   27.2330   20.9200 O.2   142  HIS142     -0.2730
    176  CB        60.8200   25.1380   21.0280 C.3   142  HIS142      0.0785
    177  CG        61.9400   25.7020   21.8390 C.ar  142  HIS142      0.0821
    178  ND1       62.7960   24.9100   22.5760 N.ar  142  HIS142     -0.2267
    179  CD2       62.3340   26.9800   22.0510 C.ar  142  HIS142      0.1154
    180  CE1       63.6640   25.6760   23.2090 C.ar  142  HIS142      0.1986
    181  NE2       63.4070   26.9350   22.9100 N.ar  142  HIS142     -0.2212
    182  N         59.0190   27.1580   23.1250 N.am  143  PRO143     -0.2727
    183  CA        58.5650   28.5230   23.4120 C.3   143  PRO143      0.1402
    184  C         59.1500   29.6810   22.5880 C.2   143  PRO143      0.2269
    185  O         58.5840   30.7740   22.5940 O.2   143  PRO143     -0.2865
    186  CB        58.8580   28.6700   24.9060 C.3   143  PRO143      0.0296
    187  CG        60.0040   27.7670   25.1250 C.3   143  PRO143      0.0237
    188  CD        59.5930   26.5520   24.3380 C.3   143  PRO143      0.0939
    189  N         58.9620   30.2570   19.5000 N.3   145  GLU145     -0.1231
    190  CA        57.9620   30.7030   18.5350 C.3   145  GLU145      0.1699
    191  C         56.9200   31.5960   19.1910 C.2   145  GLU145      0.2592
    192  O         56.3220   32.4550   18.5390 O.2   145  GLU145     -0.2718
    193  CB        57.2810   29.5080   17.8630 C.3   145  GLU145      0.0402
    194  CG        56.2500   29.9140   16.8150 C.3   145  GLU145      0.1161
    195  CD        55.7780   28.7680   15.9200 C.2   145  GLU145      0.3649
    196  OE1       55.9100   27.5840   16.3130 O.co2 145  GLU145     -0.2457
    197  OE2       55.2630   29.0670   14.8150 O.co2 145  GLU145     -0.2457
    198  N         56.7030   31.3700   20.4840 N.am  146  PHE146     -0.1962
    199  CA        55.7530   32.1430   21.2660 C.3   146  PHE146      0.1771
    200  C         56.2260   33.5920   21.2850 C.2   146  PHE146      0.2619
    201  O         55.4940   34.5000   20.8890 O.2   146  PHE146     -0.2715
    202  CB        55.6880   31.5810   22.6890 C.3   146  PHE146      0.0574
    203  CG        55.0580   32.5110   23.6880 C.ar  146  PHE146     -0.0200
    204  CD1       53.7130   32.8370   23.6090 C.ar  146  PHE146     -0.0042
    205  CD2       55.8180   33.0630   24.7090 C.ar  146  PHE146     -0.0042
    206  CE1       53.1340   33.7000   24.5320 C.ar  146  PHE146     -0.0003
    207  CE2       55.2480   33.9280   25.6350 C.ar  146  PHE146     -0.0003
    208  CZ        53.9060   34.2470   25.5490 C.ar  146  PHE146     -0.0000
    209  N         57.4640   33.7940   21.7300 N.am  147  TYR147     -0.1974
    210  CA        58.0510   35.1260   21.7960 C.3   147  TYR147      0.1639
    211  C         58.1340   35.7470   20.4100 C.2   147  TYR147      0.2290
    212  O         57.9780   36.9540   20.2560 O.2   147  TYR147     -0.2864
    213  CB        59.4420   35.0620   22.4170 C.3   147  TYR147      0.0560
    214  CG        59.4240   34.6730   23.8710 C.ar  147  TYR147     -0.0198
    215  CD1       58.9040   35.5380   24.8330 C.ar  147  TYR147     -0.0009
    216  CD2       59.9200   33.4410   24.2920 C.ar  147  TYR147     -0.0009
    217  CE1       58.8770   35.1860   26.1770 C.ar  147  TYR147      0.0417
    218  CE2       59.8980   33.0810   25.6370 C.ar  147  TYR147      0.0417
    219  CZ        59.3750   33.9590   26.5700 C.ar  147  TYR147      0.1957
    220  OH        59.3450   33.6130   27.8970 O.3   147  TYR147     -0.2866
    221  N         56.0300   35.3060   17.9640 N.3   149  LYS149     -0.1231
    222  CA        54.6960   35.7880   17.6280 C.3   149  LYS149      0.1693
    223  C         54.3480   37.0520   18.4090 C.2   149  LYS149      0.2591
    224  O         53.3670   37.7310   18.1000 O.2   149  LYS149     -0.2718
    225  CB        53.6490   34.7050   17.8820 C.3   149  LYS149      0.0285
    226  CG        53.7960   33.5170   16.9530 C.3   149  LYS149      0.0035
    227  CD        52.5620   32.6690   16.9460 C.3   149  LYS149      0.0206
    228  CE        52.6510   31.6280   15.8540 C.3   149  LYS149      0.1093
    229  NZ        51.4110   30.8020   15.7940 N.3   149  LYS149     -0.1314
    230  N         55.1480   37.3560   19.4300 N.am  150  LEU150     -0.1980
    231  CA        54.9410   38.5560   20.2340 C.3   150  LEU150      0.1596
    232  C         55.8810   39.6790   19.8180 C.2   150  LEU150      0.2287
    233  O         55.9620   40.7040   20.4940 O.2   150  LEU150     -0.2864
    234  CB        55.1090   38.2740   21.7230 C.3   150  LEU150      0.0297
    235  CG        54.0880   37.3600   22.3860 C.3   150  LEU150      0.0022
    236  CD1       54.1100   37.6880   23.8460 C.3   150  LEU150      0.0001
    237  CD2       52.6920   37.5770   21.8390 C.3   150  LEU150      0.0001
@<TRIPOS>BOND
     1   155   156    1
     2   158   157    2
     3   197   195   ar
     4   157   156    1
     5   156   159    1
     6   229   228    1
     7   228   227    1
     8   195   196   ar
     9   195   194    1
    10   159   160    1
    11   194   193    1
    12   227   226    1
    13   226   225    1
    14   160   161    2
    15   160   162   am
    16   222   225    1
    17   222   221    1
    18   222   223    1
    19   193   190    1
    20   224   223    2
    21   223   230   am
    22   190   191    1
    23   190   189    1
    24   192   191    2
    25   191   198   am
    26   230   231    1
    27   170   169   ar
    28   163   164    1
    29   232   231    1
    30   232   233    2
    31   231   234    1
    32   212   211    2
    33   211   210    1
    34   198   199    1
    35   164   167    1
    36   164   165    1
    37   169   171   ar
    38   169   168    1
    39   201   200    2
    40   175   174    2
    41   172   165   am
    42   172   173    1
    43   176   173    1
    44   176   177    1
    45   199   200    1
    46   199   202    1
    47   200   209   am
    48   167   168    1
    49   165   166    2
    50   234   235    1
    51   209   210    1
    52   173   174    1
    53   210   213    1
    54   177   179   ar
    55   177   178   ar
    56   237   235    1
    57   174   182   am
    58   116   114   am
    59   179   181   ar
    60   235   236    1
    61   213   214    1
    62   178   180   ar
    63   184   185    2
    64   184   183    1
    65   202   203    1
    66   181   180   ar
    67   182   183    1
    68   182   188    1
    69   114   115    2
    70   114   113    1
    71    98    97    1
    72    98    99    1
    73   183   186    1
    74    97    96    1
    75   134   133    1
    76   204   203   ar
    77   204   206   ar
    78   135   133    1
    79   154   152    1
    80   203   205   ar
    81   113   112    1
    82   214   216   ar
    83   214   215   ar
    84   151   150    2
    85    96    95    1
    86   216   218   ar
    87   188   187    1
    88    94    93    2
    89    95    92    1
    90   133   130    1
    91   206   208   ar
    92   205   207   ar
    93   215   217   ar
    94   186   187    1
    95    92    93    1
    96    92    91    1
    97   152   153    1
    98   152   149    1
    99   150   149    1
   100    93   100   am
   101   112   109    1
   102   139   138    2
   103   143   141    1
   104   208   207   ar
   105   142   141    1
   106   218   219   ar
   107   130   131    1
   108   130   129    1
   109   141   140    1
   110   148   149    1
   111   148   146   am
   112   109   108    1
   113   109   110    1
   114   108   102   am
   115   217   219   ar
   116   100   101    1
   117   132   131    2
   118   101   102    1
   119   101   104    1
   120    91    82   am
   121   129   127   am
   122   102   103    2
   123   136   137    1
   124   219   220    1
   125   138   137    1
   126   138   144   am
   127   145   146    1
   128   145   144    1
   129   107   105   am
   130   146   147    2
   131   111   110    2
   132   110   117   am
   133   140   137    1
   134    83    82    2
   135    82    81    1
   136   127   128    2
   137   127   126    1
   138   104   105    1
   139   105   106    2
   140   117   118    1
   141   126   125    1
   142    29    27    1
   143   125   119   am
   144    84    81    1
   145    84    85    1
   146    81    80    1
   147    54    52    1
   148   119   118    1
   149   119   120    2
   150   118   121    1
   151    27    26    1
   152    27    28    1
   153    26    23    1
   154    86    85    1
   155    86    87    1
   156    80    71   am
   157    72    71    2
   158    52    53    1
   159    52    51    1
   160    71    70    1
   161    22    23    1
   162   121   122    1
   163   121   123    1
   164    23    24    1
   165    25    24    2
   166   122   124    1
   167    89    88    1
   168    87    88    2
   169    51    48    1
   170    68    66    1
   171    24    30   am
   172    88    90    1
   173    70    69    1
   174    70    73    1
   175    66    67    1
   176    66    63    1
   177    50    49    2
   178    19    17   ar
   179    19    21   ar
   180    16    17   ar
   181    16    14   ar
   182    48    49    1
   183    48    47    1
   184    49    55   am
   185    73    74    1
   186    30    31    1
   187    62    63    1
   188    62    57   am
   189    63    64    1
   190    17    15   ar
   191    65    64    2
   192    47    42   am
   193    21    20   ar
   194    55    56    1
   195    75    74    1
   196    75    76    1
   197    14    13   ar
   198    56    57    1
   199    56    59    1
   200    31    34    1
   201    31    32    1
   202    57    58    2
   203    42    43    2
   204    42    41    1
   205    34    35    1
   206     7     5    1
   207    78    77    1
   208    37    35   ar
   209    37    39   ar
   210    41    40    1
   211    41    44    1
   212    15    13   ar
   213    15    18   ar
   214    76    77    2
   215    35    36   ar
   216    59    61    1
   217    59    60    1
   218    13    12    1
   219    20    18   ar
   220     4     3    2
   221    77    79    1
   222    32    40   am
   223    32    33    2
   224    40    46    1
   225    39    38   ar
   226    44    45    1
   227     5     6    1
   228     5     2    1
   229     3     2    1
   230     3     8   am
   231     2     1    1
   232    36    38   ar
   233    12     9    1
   234     9     8    1
   235     9    10    1
   236    45    46    1
   237    10    11    2
