@<TRIPOS>MOLECULE
tmp/1b8aB00.pdb
 150 138 0 0 0
SMALL
GASTEIGER

@<TRIPOS>ATOM
      1  N         32.6410   28.8750   31.6350 N.3   212  ILE212     -0.1245
      2  CA        33.7160   29.6860   31.0750 C.3   212  ILE212      0.1561
      3  C         33.9530   30.7200   32.1690 C.2   212  ILE212      0.2260
      4  O         33.0330   31.0860   32.8980 O.2   212  ILE212     -0.2867
      5  CB        33.3730   30.3700   29.7140 C.3   212  ILE212      0.0252
      6  CG1       32.0480   31.1270   29.7970 C.3   212  ILE212      0.0019
      7  CG2       33.3880   29.2950   28.5930 C.3   212  ILE212      0.0019
      8  CD1       31.8510   32.1330   28.6350 C.3   212  ILE212      0.0001
      9  N         35.6330   34.5170   32.9750 N.3   214  ARG214     -0.1245
     10  CA        36.2110   35.7250   32.4240 C.3   214  ARG214      0.1563
     11  C         36.1700   36.8070   33.4920 C.2   214  ARG214      0.2260
     12  O         35.1270   37.0940   34.0800 O.2   214  ARG214     -0.2867
     13  CB        35.4350   36.1640   31.1830 C.3   214  ARG214      0.0307
     14  CG        35.4210   35.1380   30.0470 C.3   214  ARG214      0.0489
     15  CD        34.7470   35.6690   28.8070 C.3   214  ARG214      0.2205
     16  NE        34.6820   34.6700   27.7370 N.pl3 214  ARG214     -0.0865
     17  CZ        34.3810   34.9680   26.4770 C.cat 214  ARG214      0.5346
     18  NH1       34.1190   36.2300   26.1320 N.pl3 214  ARG214      0.1354
     19  NH2       34.3420   34.0170   25.5620 N.pl3 214  ARG214      0.1354
     20  N         35.7440   39.9250   33.8660 N.3   216  GLU216     -0.1245
     21  CA        35.2530   41.1300   33.2260 C.3   216  GLU216      0.1567
     22  C         35.6790   42.3610   34.0330 C.2   216  GLU216      0.2260
     23  O         35.6700   42.3580   35.2610 O.2   216  GLU216     -0.2867
     24  CB        33.7290   41.0870   33.0810 C.3   216  GLU216      0.0388
     25  CG        33.1340   39.9550   32.2010 C.3   216  GLU216      0.1160
     26  CD        33.5650   39.9770   30.7140 C.2   216  GLU216      0.3649
     27  OE1       34.0130   41.0360   30.1840 O.co2 216  GLU216     -0.2457
     28  OE2       33.4170   38.9220   30.0520 O.co2 216  GLU216     -0.2457
     29  N         24.4130   42.2030   31.7780 N.3   222  ARG222     -0.1231
     30  CA        24.5390   41.1650   30.7350 C.3   222  ARG222      0.1694
     31  C         25.7670   40.2390   30.8500 C.2   222  ARG222      0.2592
     32  O         25.9060   39.3040   30.0590 O.2   222  ARG222     -0.2718
     33  CB        24.6240   41.8360   29.3470 C.3   222  ARG222      0.0321
     34  CG        23.6640   42.9920   29.0870 C.3   222  ARG222      0.0489
     35  CD        23.9370   43.6080   27.6980 C.3   222  ARG222      0.2205
     36  NE        25.3390   43.9940   27.5240 N.pl3 222  ARG222     -0.0865
     37  CZ        25.8910   45.0870   28.0520 C.cat 222  ARG222      0.5346
     38  NH1       25.1600   45.9080   28.7890 N.pl3 222  ARG222      0.1354
     39  NH2       27.1730   45.3660   27.8460 N.pl3 222  ARG222      0.1354
     40  N         26.6680   40.5200   31.7910 N.am  223  HIS223     -0.1962
     41  CA        27.8600   39.7010   31.9530 C.3   223  HIS223      0.1787
     42  C         27.9960   39.1400   33.3640 C.2   223  HIS223      0.2620
     43  O         27.5120   39.7210   34.3430 O.2   223  HIS223     -0.2715
     44  CB        29.1210   40.5260   31.6800 C.3   223  HIS223      0.0785
     45  CG        29.1830   41.1300   30.3140 C.ar  223  HIS223      0.0821
     46  ND1       29.9570   40.6050   29.2950 N.ar  223  HIS223     -0.2267
     47  CD2       28.5920   42.2360   29.8070 C.ar  223  HIS223      0.1154
     48  CE1       29.8360   41.3680   28.2200 C.ar  223  HIS223      0.1986
     49  NE2       29.0140   42.3630   28.5040 N.ar  223  HIS223     -0.2212
     50  N         28.6780   38.0070   33.4550 N.am  224  LEU224     -0.1977
     51  CA        29.0000   37.3940   34.7330 C.3   224  LEU224      0.1596
     52  C         30.4550   36.9700   34.5490 C.2   224  LEU224      0.2287
     53  O         30.9130   36.8100   33.4130 O.2   224  LEU224     -0.2864
     54  CB        28.1410   36.1540   34.9690 C.3   224  LEU224      0.0297
     55  CG        26.6180   36.2870   35.0730 C.3   224  LEU224      0.0022
     56  CD1       25.9410   34.9350   34.7720 C.3   224  LEU224      0.0001
     57  CD2       26.2650   36.7830   36.4240 C.3   224  LEU224      0.0001
     58  N         30.1610   31.7480   33.7490 N.3   227  ALA227     -0.1245
     59  CA        28.9350   31.5490   32.9760 C.3   227  ALA227      0.1562
     60  C         28.9890   30.1860   32.3050 C.2   227  ALA227      0.2260
     61  O         30.0360   29.5160   32.3320 O.2   227  ALA227     -0.2867
     62  CB        28.7970   32.6310   31.9120 C.3   227  ALA227      0.0290
     63  N         28.6460   28.1510   28.8640 N.3   229  SER229     -0.1217
     64  CA        28.6670   28.3370   27.4250 C.3   229  SER229      0.1889
     65  C         28.2940   27.0310   26.7330 C.2   229  SER229      0.2288
     66  O         28.7400   25.9430   27.1370 O.2   229  SER229     -0.2866
     67  CB        30.0730   28.7660   26.9680 C.3   229  SER229      0.2089
     68  OG        30.1270   28.9920   25.5710 O.3   229  SER229     -0.2183
     69  N         33.5730   47.2310   15.8280 N.3   304  ASP304     -0.1239
     70  CA        32.4870   46.3520   16.2310 C.3   304  ASP304      0.1674
     71  C         31.3140   47.2360   16.6490 C.2   304  ASP304      0.2266
     72  O         31.4880   48.4100   16.9500 O.2   304  ASP304     -0.2867
     73  CB        32.9980   45.4440   17.3810 C.3   304  ASP304      0.1410
     74  CG        31.9820   44.3710   17.8120 C.2   304  ASP304      0.3668
     75  OD1       31.0600   44.0300   17.0250 O.co2 304  ASP304     -0.2456
     76  OD2       32.1360   43.8570   18.9510 O.co2 304  ASP304     -0.2456
     77  N         23.6550   47.6030   19.4980 N.3   310  GLU310     -0.1245
     78  CA        22.8240   46.4010   19.5060 C.3   310  GLU310      0.1567
     79  C         21.4130   46.7210   19.9920 C.2   310  GLU310      0.2260
     80  O         20.4450   46.2530   19.4360 O.2   310  GLU310     -0.2867
     81  CB        23.3970   45.3330   20.4340 C.3   310  GLU310      0.0388
     82  CG        24.7150   44.7640   20.0020 C.3   310  GLU310      0.1160
     83  CD        25.1260   43.6750   20.9620 C.2   310  GLU310      0.3649
     84  OE1       24.4710   42.6040   20.9490 O.co2 310  GLU310     -0.2457
     85  OE2       26.0590   43.9060   21.7550 O.co2 310  GLU310     -0.2457
     86  N         23.4120   40.2900   22.2590 N.3   361  GLU361     -0.1231
     87  CA        24.0960   39.1410   21.6850 C.3   361  GLU361      0.1699
     88  C         23.9500   37.9000   22.5710 C.2   361  GLU361      0.2592
     89  O         24.2280   37.9670   23.7670 O.2   361  GLU361     -0.2718
     90  CB        25.5880   39.4400   21.5750 C.3   361  GLU361      0.0402
     91  CG        26.3770   38.2810   20.9530 C.3   361  GLU361      0.1161
     92  CD        27.8490   38.4970   21.1820 C.2   361  GLU361      0.3649
     93  OE1       28.2390   39.6740   21.1350 O.co2 361  GLU361     -0.2457
     94  OE2       28.5900   37.5380   21.4140 O.co2 361  GLU361     -0.2457
     95  N         23.5080   36.7820   22.0020 N.am  362  ILE362     -0.1966
     96  CA        23.4360   35.5420   22.7810 C.3   362  ILE362      0.1727
     97  C         24.4450   34.5380   22.2200 C.2   362  ILE362      0.2617
     98  O         24.8100   33.5700   22.8830 O.2   362  ILE362     -0.2715
     99  CB        22.0320   34.8810   22.7870 C.3   362  ILE362      0.0290
    100  CG1       21.5600   34.5750   21.3460 C.3   362  ILE362      0.0022
    101  CG2       21.0500   35.7820   23.5590 C.3   362  ILE362      0.0023
    102  CD1       20.3120   33.6330   21.3040 C.3   362  ILE362      0.0001
    103  N         24.9060   34.7660   21.0040 N.am  363  SER363     -0.1936
    104  CA        25.8670   33.8460   20.4150 C.3   363  SER363      0.2055
    105  C         26.7280   34.5060   19.3570 C.2   363  SER363      0.2643
    106  O         26.2870   35.4200   18.6480 O.2   363  SER363     -0.2714
    107  CB        25.1420   32.6420   19.7870 C.3   363  SER363      0.2130
    108  OG        26.0860   31.6760   19.3090 O.3   363  SER363     -0.2179
    109  N         27.9600   34.0000   19.2520 N.am  364  SER364     -0.1949
    110  CA        28.9330   34.4440   18.2820 C.3   364  SER364      0.1924
    111  C         29.4600   33.1850   17.5850 C.2   364  SER364      0.2314
    112  O         29.6190   32.1510   18.2340 O.2   364  SER364     -0.2863
    113  CB        30.0960   35.0920   19.0140 C.3   364  SER364      0.2116
    114  OG        30.4850   36.2260   18.3060 O.3   364  SER364     -0.2180
    115  N         29.5440   29.8430   19.9340 N.3   407  GLY407     -0.1225
    116  CA        29.5360   29.8070   21.3810 C.3   407  GLY407      0.1811
    117  C         28.2250   30.5180   21.7060 C.2   407  GLY407      0.2280
    118  O         28.0280   31.6560   21.2740 O.2   407  GLY407     -0.2866
    119  N         25.7990   31.6080   24.8490 N.3   409  GLY409     -0.1225
    120  CA        25.7740   31.7220   26.2970 C.3   409  GLY409      0.1811
    121  C         24.4450   31.2390   26.8530 C.2   409  GLY409      0.2280
    122  O         23.3980   31.7440   26.4400 O.2   409  GLY409     -0.2866
    123  N         23.2090   31.6140   29.9740 N.3   411  GLU411     -0.1231
    124  CA        22.5610   32.6770   30.7550 C.3   411  GLU411      0.1699
    125  C         21.9990   33.7230   29.7860 C.2   411  GLU411      0.2592
    126  O         20.8670   34.1800   29.9490 O.2   411  GLU411     -0.2718
    127  CB        23.5450   33.3650   31.7150 C.3   411  GLU411      0.0402
    128  CG        24.0640   32.4820   32.8850 C.3   411  GLU411      0.1161
    129  CD        24.9300   31.2930   32.4280 C.2   411  GLU411      0.3649
    130  OE1       25.7200   31.4580   31.4820 O.co2 411  GLU411     -0.2457
    131  OE2       24.8580   30.2220   33.0620 O.co2 411  GLU411     -0.2457
    132  N         22.7890   34.0940   28.7790 N.am  412  ARG412     -0.1980
    133  CA        22.3090   35.0600   27.7830 C.3   412  ARG412      0.1597
    134  C         21.0290   34.5760   27.1160 C.2   412  ARG412      0.2287
    135  O         20.0600   35.3350   26.9890 O.2   412  ARG412     -0.2864
    136  CB        23.3620   35.2730   26.7040 C.3   412  ARG412      0.0334
    137  CG        24.4570   36.2100   27.0930 C.3   412  ARG412      0.0492
    138  CD        24.0620   37.6730   27.0630 C.3   412  ARG412      0.2205
    139  NE        25.2100   38.4450   27.5160 N.pl3 412  ARG412     -0.0865
    140  CZ        26.2380   38.8500   26.7690 C.cat 412  ARG412      0.5346
    141  NH1       26.3080   38.5850   25.4630 N.pl3 412  ARG412      0.1354
    142  NH2       27.2520   39.4700   27.3730 N.pl3 412  ARG412      0.1354
    143  N         21.0470   39.4630   34.1630 N.3   423  ILE423     -0.1245
    144  CA        21.5620   38.1030   33.9980 C.3   423  ILE423      0.1561
    145  C         21.6690   37.3780   35.3460 C.2   423  ILE423      0.2260
    146  O         21.6340   36.1440   35.4040 O.2   423  ILE423     -0.2867
    147  CB        22.9460   38.1380   33.2860 C.3   423  ILE423      0.0252
    148  CG1       23.3360   36.7350   32.8370 C.3   423  ILE423      0.0019
    149  CG2       23.9850   38.7900   34.1930 C.3   423  ILE423      0.0019
    150  CD1       24.6020   36.7450   31.8880 C.3   423  ILE423      0.0001
@<TRIPOS>BOND
     1    69    70    1
     2    70    71    1
     3    70    73    1
     4    71    72    2
     5    75    74   ar
     6    73    74    1
     7   111   112    2
     8   111   110    1
     9    74    76   ar
    10   110   113    1
    11   110   109    1
    12   114   113    1
    13   106   105    2
    14   109   105   am
    15   108   107    1
    16   105   104    1
    17    80    79    2
    18    77    78    1
    19    78    79    1
    20    78    81    1
    21   107   104    1
    22   115   116    1
    23    82    81    1
    24    82    83    1
    25   104   103    1
    26    84    83   ar
    27    91    92    1
    28    91    90    1
    29    83    85   ar
    30   103    97   am
    31    93    92   ar
    32    92    94   ar
    33   118   117    2
    34   102   100    1
    35   100    99    1
    36   116   117    1
    37    90    87    1
    38    87    86    1
    39    87    88    1
    40    95    88   am
    41    95    96    1
    42    97    96    1
    43    97    98    2
    44    88    89    2
    45    96    99    1
    46    99   101    1
    47   119   120    1
    48   141   140    1
    49    19    17    1
    50    68    67    1
    51    18    17    1
    52   120   121    1
    53   122   121    2
    54    17    16    2
    55   136   137    1
    56   136   133    1
    57    65    66    2
    58    65    64    1
    59   140   142    1
    60   140   139    2
    61    67    64    1
    62   135   134    2
    63   138   137    1
    64   138   139    1
    65   134   133    1
    66    64    63    1
    67    36    35    1
    68    36    37    2
    69    35    34    1
    70    16    15    1
    71   133   132    1
    72    39    37    1
    73    37    38    1
    74    48    49   ar
    75    48    46   ar
    76    49    47   ar
    77     7     5    1
    78     8     6    1
    79   132   125   am
    80    15    14    1
    81    34    33    1
    82    46    45   ar
    83    33    30    1
    84     5     6    1
    85     5     2    1
    86   125   126    2
    87   125   124    1
    88    47    45   ar
    89   123   124    1
    90    14    13    1
    91    28    26   ar
    92    32    31    2
    93    27    26   ar
    94    45    44    1
    95    26    25    1
    96    30    31    1
    97    30    29    1
    98   124   127    1
    99    31    40   am
   100     2     1    1
   101     2     3    1
   102    13    10    1
   103   130   129   ar
   104    44    41    1
   105   127   128    1
   106    40    41    1
   107   150   148    1
   108    62    59    1
   109    41    42    1
   110     3     4    2
   111    25    24    1
   112    60    61    2
   113    60    59    1
   114    10     9    1
   115    10    11    1
   116   129   128    1
   117   129   131   ar
   118   148   147    1
   119    59    58    1
   120    24    21    1
   121    21    20    1
   122    21    22    1
   123   147   144    1
   124   147   149    1
   125    42    50   am
   126    42    43    2
   127    53    52    2
   128    50    51    1
   129    11    12    2
   130   144   143    1
   131   144   145    1
   132    22    23    2
   133    52    51    1
   134    51    54    1
   135    56    55    1
   136    54    55    1
   137    55    57    1
   138   145   146    2
