@<TRIPOS>MOLECULE
tmp/1b8gB00.pdb
 142 132 0 0 0
SMALL
GASTEIGER

@<TRIPOS>ATOM
      1  N          5.2080    6.1670   71.0190 N.3    40  ALA40      -0.1245
      2  CA         6.3960    5.3470   71.2020 C.3    40  ALA40       0.1562
      3  C          6.3220    4.5130   72.4660 C.2    40  ALA40       0.2260
      4  O          6.9430    4.8360   73.4740 O.2    40  ALA40      -0.2867
      5  CB         7.6660    6.2170   71.2090 C.3    40  ALA40       0.0290
      6  N         11.3690    8.8810   86.1940 N.3   113  GLY113     -0.1210
      7  CA        11.3930    8.8740   84.7330 C.3   113  GLY113      0.1956
      8  C         12.5290    9.6890   84.1120 C.2   113  GLY113      0.2612
      9  O         13.2190   10.4410   84.8040 O.2   113  GLY113     -0.2717
     10  N         12.7280    9.5420   82.8020 N.am  114  ALA114     -0.1965
     11  CA        13.7810   10.2740   82.1030 C.3   114  ALA114      0.1728
     12  C         13.3550   11.7290   81.9860 C.2   114  ALA114      0.2616
     13  O         14.1920   12.6130   81.8800 O.2   114  ALA114     -0.2715
     14  CB        14.0230    9.6680   80.7040 C.3   114  ALA114      0.0334
     15  N         12.0460   11.9670   82.0000 N.am  115  THR115     -0.1951
     16  CA        11.4870   13.3240   81.9330 C.3   115  THR115      0.1897
     17  C         12.0660   14.1610   83.0800 C.2   115  THR115      0.2313
     18  O         12.4500   15.3250   82.9170 O.2   115  THR115     -0.2863
     19  CB         9.9570   13.2840   82.1040 C.3   115  THR115      0.1794
     20  OG1        9.4130   12.4580   81.0840 O.3   115  THR115     -0.2208
     21  CG2        9.3350   14.6720   82.0070 C.3   115  THR115      0.0378
     22  N         15.9720   14.4090   82.6840 N.3   118  ASN118     -0.1240
     23  CA        16.2600   15.4100   81.6560 C.3   118  ASN118      0.1653
     24  C         16.3740   16.7970   82.2960 C.2   118  ASN118      0.2266
     25  O         17.3810   17.4770   82.1620 O.2   118  ASN118     -0.2867
     26  CB        15.1130   15.4960   80.6270 C.3   118  ASN118      0.1155
     27  CG        15.0970   14.3480   79.6230 C.2   118  ASN118      0.2627
     28  OD1       16.0970   13.6310   79.4300 O.2   118  ASN118     -0.2716
     29  ND2       13.9340   14.1770   78.9620 N.am  118  ASN118     -0.0877
     30  N         13.5120   14.5660   69.8530 N.3   139  TYR139     -0.1241
     31  CA        12.3490   14.3160   70.6670 C.3   139  TYR139      0.1605
     32  C         11.6720   15.6560   71.0280 C.2   139  TYR139      0.2264
     33  O         12.2090   16.4570   71.7980 O.2   139  TYR139     -0.2867
     34  CB        12.8280   13.5900   71.9180 C.3   139  TYR139      0.0534
     35  CG        11.8130   13.4140   73.0330 C.ar  139  TYR139     -0.0201
     36  CD1       10.5910   12.7880   72.7800 C.ar  139  TYR139     -0.0009
     37  CD2       12.1310   13.8680   74.3150 C.ar  139  TYR139     -0.0009
     38  CE1        9.6830   12.5970   73.8260 C.ar  139  TYR139      0.0417
     39  CE2       11.2270   13.6720   75.3630 C.ar  139  TYR139      0.0417
     40  CZ        10.0040   13.0330   75.1190 C.ar  139  TYR139      0.1957
     41  OH         9.1320   12.8310   76.1410 O.3   139  TYR139     -0.2866
     42  N         11.6860   17.4760   74.4610 N.3   142  PHE142     -0.1241
     43  CA        12.8330   18.2280   74.9600 C.3   142  PHE142      0.1605
     44  C         12.5130   19.7060   75.0660 C.2   142  PHE142      0.2264
     45  O         13.0370   20.4070   75.9290 O.2   142  PHE142     -0.2867
     46  CB        14.0250   18.0570   74.0240 C.3   142  PHE142      0.0534
     47  CG        14.7810   16.7710   74.2270 C.ar  142  PHE142     -0.0203
     48  CD1       14.7820   16.1310   75.4580 C.ar  142  PHE142     -0.0042
     49  CD2       15.5080   16.2110   73.1890 C.ar  142  PHE142     -0.0042
     50  CE1       15.4970   14.9550   75.6520 C.ar  142  PHE142     -0.0003
     51  CE2       16.2180   15.0430   73.3760 C.ar  142  PHE142     -0.0003
     52  CZ        16.2140   14.4140   74.6100 C.ar  142  PHE142     -0.0000
     53  N         10.7690   19.7450   78.5710 N.3   145  ASP145     -0.1239
     54  CA        11.6200   19.2220   79.6350 C.3   145  ASP145      0.1674
     55  C         12.8530   20.0560   79.9530 C.2   145  ASP145      0.2266
     56  O         13.1150   20.3710   81.1130 O.2   145  ASP145     -0.2867
     57  CB        12.0910   17.7980   79.2970 C.3   145  ASP145      0.1410
     58  CG        10.9430   16.8190   79.1150 C.2   145  ASP145      0.3668
     59  OD1        9.7910   17.2060   79.3700 O.co2 145  ASP145     -0.2456
     60  OD2       11.2010   15.6620   78.7200 O.co2 145  ASP145     -0.2456
     61  N         20.7900   11.8990   71.7700 N.3   192  THR192     -0.1218
     62  CA        19.9390   10.7460   72.0390 C.3   192  THR192      0.1862
     63  C         20.5710    9.5880   71.2660 C.2   192  THR192      0.2287
     64  O         20.5540    9.5750   70.0380 O.2   192  THR192     -0.2866
     65  CB        18.4770   10.9690   71.5530 C.3   192  THR192      0.1770
     66  OG1       17.7790   11.7980   72.4880 O.3   192  THR192     -0.2211
     67  CG2       17.7230    9.6700   71.4940 C.3   192  THR192      0.0375
     68  N         15.8430    9.0220   68.8110 N.3   196  ASN196     -0.1240
     69  CA        14.3980    9.1830   68.7240 C.3   196  ASN196      0.1653
     70  C         14.4300   10.5480   68.0290 C.2   196  ASN196      0.2266
     71  O         14.9650   11.4930   68.5910 O.2   196  ASN196     -0.2867
     72  CB        13.7820    9.3070   70.1140 C.3   196  ASN196      0.1155
     73  CG        12.3020    9.5920   70.0700 C.2   196  ASN196      0.2627
     74  OD1       11.7060    9.6580   69.0000 O.2   196  ASN196     -0.2716
     75  ND2       11.6970    9.7640   71.2330 N.am  196  ASN196     -0.0877
     76  N         21.5610   10.6320   76.2280 N.3   224  ASP224     -0.1239
     77  CA        20.2790   10.0710   76.6150 C.3   224  ASP224      0.1674
     78  C         20.1790    8.6980   75.9400 C.2   224  ASP224      0.2266
     79  O         19.7670    8.5810   74.7930 O.2   224  ASP224     -0.2867
     80  CB        19.1680   11.0090   76.1380 C.3   224  ASP224      0.1410
     81  CG        17.8020   10.5820   76.5960 C.2   224  ASP224      0.3668
     82  OD1       17.5830    9.3650   76.7740 O.co2 224  ASP224     -0.2456
     83  OD2       16.9420   11.4660   76.7690 O.co2 224  ASP224     -0.2456
     84  N         18.2070    6.1870   76.6130 N.3   226  ILE226     -0.1231
     85  CA        16.9560    5.5460   77.0080 C.3   226  ILE226      0.1692
     86  C         16.5800    4.3750   76.0980 C.2   226  ILE226      0.2592
     87  O         15.9140    3.4350   76.5290 O.2   226  ILE226     -0.2718
     88  CB        15.7960    6.5850   77.0560 C.3   226  ILE226      0.0266
     89  CG1       14.5190    5.9250   77.5390 C.3   226  ILE226      0.0019
     90  CG2       15.5590    7.2010   75.6990 C.3   226  ILE226      0.0020
     91  CD1       13.3480    6.8880   77.5770 C.3   226  ILE226      0.0001
     92  N         17.0350    4.4120   74.8480 N.am  227  TYR227     -0.1976
     93  CA        16.7290    3.3420   73.8910 C.3   227  TYR227      0.1639
     94  C         17.8590    2.3160   73.7380 C.2   227  TYR227      0.2290
     95  O         17.8010    1.4380   72.8670 O.2   227  TYR227     -0.2864
     96  CB        16.4190    3.9450   72.5130 C.3   227  TYR227      0.0560
     97  CG        15.1010    4.6770   72.4580 C.ar  227  TYR227     -0.0198
     98  CD1       13.9110    3.9800   72.3240 C.ar  227  TYR227     -0.0009
     99  CD2       15.0450    6.0620   72.5840 C.ar  227  TYR227     -0.0009
    100  CE1       12.6880    4.6460   72.3200 C.ar  227  TYR227      0.0417
    101  CE2       13.8370    6.7370   72.5850 C.ar  227  TYR227      0.0417
    102  CZ        12.6620    6.0200   72.4560 C.ar  227  TYR227      0.1957
    103  OH        11.4590    6.6760   72.5000 O.3   227  TYR227     -0.2866
    104  N         16.3660    5.0640   81.4540 N.3   264  SER264     -0.1217
    105  CA        15.0350    4.8790   82.0040 C.3   264  SER264      0.1889
    106  C         14.5220    3.5100   81.5880 C.2   264  SER264      0.2288
    107  O         14.9800    2.9240   80.6000 O.2   264  SER264     -0.2866
    108  CB        14.1190    6.0090   81.4970 C.3   264  SER264      0.2089
    109  OG        12.7500    5.6470   81.4200 O.3   264  SER264     -0.2183
    110  N         11.3310    2.9900   80.8520 N.3   266  SER266     -0.1202
    111  CA        10.0900    3.2160   80.1140 C.3   266  SER266      0.2020
    112  C         10.0160    2.7080   78.6980 C.2   266  SER266      0.2618
    113  O          8.9540    2.2950   78.2500 O.2   266  SER266     -0.2717
    114  CB         9.7420    4.7020   80.0830 C.3   266  SER266      0.2103
    115  OG         9.8980    5.2810   81.3590 O.3   266  SER266     -0.2182
    116  N         11.1280    2.7360   77.9800 N.am  267  LYS267     -0.1979
    117  CA        11.0960    2.3100   76.5960 C.3   267  LYS267      0.1596
    118  C         11.5210    0.8710   76.3240 C.2   267  LYS267      0.2287
    119  O         10.9260    0.2090   75.4800 O.2   267  LYS267     -0.2864
    120  CB        11.8860    3.3130   75.7400 C.3   267  LYS267      0.0298
    121  CG        11.2960    4.7470   75.7990 C.3   267  LYS267      0.0038
    122  CD         9.8510    4.8240   75.2360 C.3   267  LYS267      0.0206
    123  CE         9.1920    6.2230   75.3560 C.3   267  LYS267      0.1093
    124  NZ        10.2450    7.2380   75.6240 N.3   267  LYS267     -0.1314
    125  N          6.6330    2.7220   81.5680 N.3   272  PRO272     -0.2116
    126  CA         6.5710    4.1730   81.7650 C.3   272  PRO272      0.1372
    127  C          5.7510    4.6140   82.9930 C.2   272  PRO272      0.2244
    128  O          6.0590    5.6290   83.6260 O.2   272  PRO272     -0.2868
    129  CB         5.9770    4.6930   80.4460 C.3   272  PRO272      0.0268
    130  CG         5.2170    3.5470   79.8960 C.3   272  PRO272      0.0207
    131  CD         5.9910    2.3100   80.3100 C.3   272  PRO272      0.0892
    132  N          7.6030    5.0480   86.4970 N.3   275  ARG275     -0.1245
    133  CA         8.4910    6.2060   86.6570 C.3   275  ARG275      0.1563
    134  C          9.9150    5.9270   87.1320 C.2   275  ARG275      0.2260
    135  O         10.3470    6.4600   88.1530 O.2   275  ARG275     -0.2867
    136  CB         7.8530    7.2330   87.5840 C.3   275  ARG275      0.0307
    137  CG         6.3880    7.5410   87.2750 C.3   275  ARG275      0.0489
    138  CD         6.3130    8.6120   86.2090 C.3   275  ARG275      0.2205
    139  NE         6.5830    8.0260   84.9140 N.pl3 275  ARG275     -0.0865
    140  CZ         7.2700    8.6040   83.9370 C.cat 275  ARG275      0.5346
    141  NH1        7.7790    9.8240   84.0880 N.pl3 275  ARG275      0.1354
    142  NH2        7.4660    7.9170   82.8140 N.pl3 275  ARG275      0.1354
@<TRIPOS>BOND
     1    70    71    2
     2    70    69    1
     3    69    68    1
     4    69    72    1
     5    74    73    2
     6    30    31    1
     7    64    63    2
     8    73    72    1
     9    73    75   am
    10    31    32    1
    11    31    34    1
    12     1     2    1
    13    32    33    2
    14     2     5    1
    15     2     3    1
    16    63    62    1
    17    67    65    1
    18    65    62    1
    19    65    66    1
    20    61    62    1
    21    34    35    1
    22   100    98   ar
    23   100   102   ar
    24    98    97   ar
    25   102   103    1
    26   102   101   ar
    27    97    96    1
    28    97    99   ar
    29     3     4    2
    30    96    93    1
    31    99   101   ar
    32    36    35   ar
    33    36    38   ar
    34    95    94    2
    35    35    37   ar
    36    49    51   ar
    37    49    47   ar
    38    51    52   ar
    39    94    93    1
    40    38    40   ar
    41    93    92    1
    42    46    47    1
    43    46    43    1
    44    47    48   ar
    45    37    39   ar
    46    42    43    1
    47    52    50   ar
    48    79    78    2
    49    92    86   am
    50    43    44    1
    51    44    45    2
    52    40    39   ar
    53    40    41    1
    54   122   123    1
    55   122   121    1
    56   123   124    1
    57    48    50   ar
    58   119   118    2
    59    90    88    1
    60   120   121    1
    61   120   117    1
    62    78    77    1
    63    86    87    2
    64    86    85    1
    65    80    81    1
    66    80    77    1
    67    76    77    1
    68   118   117    1
    69    81    83   ar
    70    81    82   ar
    71   117   116    1
    72    84    85    1
    73    85    88    1
    74    88    89    1
    75    89    91    1
    76   116   112   am
    77   113   112    2
    78    53    54    1
    79   112   111    1
    80    60    58   ar
    81    29    27   am
    82    58    57    1
    83    58    59   ar
    84    57    54    1
    85    28    27    2
    86    27    26    1
    87    54    55    1
    88   130   131    1
    89   130   129    1
    90    55    56    2
    91   114   111    1
    92   114   115    1
    93   111   110    1
    94   131   125    1
    95   129   126    1
    96   107   106    2
    97    26    23    1
    98    14    11    1
    99    20    19    1
   100   109   108    1
   101   104   105    1
   102   108   105    1
   103   125   126    1
   104   106   105    1
   105    23    24    1
   106    23    22    1
   107   126   127    1
   108    13    12    2
   109    16    15    1
   110    16    19    1
   111    16    17    1
   112    12    15   am
   113    12    11    1
   114    21    19    1
   115    11    10    1
   116    25    24    2
   117    10     8   am
   118   142   140    1
   119    18    17    2
   120   127   128    2
   121   140   141    1
   122   140   139    2
   123     8     7    1
   124     8     9    2
   125     7     6    1
   126   139   138    1
   127   138   137    1
   128   132   133    1
   129   133   134    1
   130   133   136    1
   131   134   135    2
   132   137   136    1
