@<TRIPOS>MOLECULE
tmp/1b8hB00.pdb
 200 200 0 0 0
SMALL
GASTEIGER

@<TRIPOS>ATOM
      1  N         36.3350   45.8490  119.5070 N.3    32  ARG32      -0.1245
      2  CA        37.2970   44.9680  120.1460 C.3    32  ARG32       0.1563
      3  C         38.1330   45.7960  121.1050 C.2    32  ARG32       0.2260
      4  O         38.5250   46.9130  120.7860 O.2    32  ARG32      -0.2867
      5  CB        38.1670   44.2790  119.0940 C.3    32  ARG32       0.0307
      6  CG        39.1340   45.1850  118.3670 C.3    32  ARG32       0.0489
      7  CD        40.5370   45.1100  118.9350 C.3    32  ARG32       0.2205
      8  NE        41.4760   45.7910  118.0530 N.pl3  32  ARG32      -0.0865
      9  CZ        42.7670   45.9590  118.3080 C.cat  32  ARG32       0.5346
     10  NH1       43.2940   45.4940  119.4280 N.pl3  32  ARG32       0.1354
     11  NH2       43.5320   46.6000  117.4430 N.pl3  32  ARG32       0.1354
     12  N         43.3990   46.0230  124.2260 N.3    35  ASN35      -0.1225
     13  CA        44.3680   44.9660  124.5930 C.3    35  ASN35       0.1785
     14  C         44.2440   43.6900  123.7740 C.2    35  ASN35       0.2598
     15  O         45.0170   42.7480  123.9710 O.2    35  ASN35      -0.2718
     16  CB        44.2780   44.6000  126.0810 C.3    35  ASN35       0.1169
     17  CG        42.9050   44.1250  126.4820 C.2    35  ASN35       0.2627
     18  OD1       42.1540   43.5950  125.6650 O.2    35  ASN35      -0.2716
     19  ND2       42.5680   44.3010  127.7470 N.am   35  ASN35      -0.0877
     20  N         43.2590   43.6650  122.8760 N.am   36  GLY36      -0.1942
     21  CA        43.0460   42.5340  121.9830 C.3    36  GLY36       0.2014
     22  C         42.5890   41.2110  122.5600 C.2    36  GLY36       0.2640
     23  O         42.9040   40.1530  122.0080 O.2    36  GLY36      -0.2714
     24  N         41.8380   41.2750  123.6570 N.am   37  THR37      -0.1936
     25  CA        41.3260   40.0840  124.3330 C.3    37  THR37       0.2028
     26  C         39.8640   39.8260  124.0250 C.2    37  THR37       0.2643
     27  O         39.4610   38.7030  123.7710 O.2    37  THR37      -0.2714
     28  CB        41.4490   40.2090  125.8540 C.3    37  THR37       0.1808
     29  OG1       40.5710   41.2420  126.3250 O.3    37  THR37      -0.2208
     30  CG2       42.8900   40.5320  126.2310 C.3    37  THR37       0.0379
     31  N         39.0690   40.8800  124.0520 N.am   38  THR38      -0.1936
     32  CA        37.6540   40.7510  123.7960 C.3    38  THR38       0.2028
     33  C         37.2240   41.3050  122.4420 C.2    38  THR38       0.2642
     34  O         37.7820   42.2870  121.9500 O.2    38  THR38      -0.2714
     35  CB        36.8800   41.4770  124.8770 C.3    38  THR38       0.1808
     36  OG1       37.3560   41.0490  126.1600 O.3    38  THR38      -0.2208
     37  CG2       35.4070   41.1910  124.7500 C.3    38  THR38       0.0379
     38  N         36.2400   40.6490  121.8330 N.am   39  TYR39      -0.1973
     39  CA        35.6670   41.0750  120.5510 C.3    39  TYR39       0.1639
     40  C         34.1550   41.0910  120.7540 C.2    39  TYR39       0.2290
     41  O         33.5930   40.1490  121.2950 O.2    39  TYR39      -0.2864
     42  CB        36.0120   40.0860  119.4190 C.3    39  TYR39       0.0560
     43  CG        35.1790   40.2950  118.1480 C.ar   39  TYR39      -0.0198
     44  CD1       35.4110   41.3840  117.3000 C.ar   39  TYR39      -0.0009
     45  CD2       34.1040   39.4520  117.8400 C.ar   39  TYR39      -0.0009
     46  CE1       34.5930   41.6300  116.1720 C.ar   39  TYR39       0.0417
     47  CE2       33.2770   39.6920  116.7200 C.ar   39  TYR39       0.0417
     48  CZ        33.5260   40.7870  115.8920 C.ar   39  TYR39       0.1957
     49  OH        32.7180   41.0480  114.7900 O.3    39  TYR39      -0.2866
     50  N         38.1000   46.7930  114.6550 N.3   103  PRO103     -0.2102
     51  CA        38.2900   45.5880  113.8300 C.3   103  PRO103      0.1504
     52  C         38.1040   45.9130  112.3480 C.2   103  PRO103      0.2576
     53  O         37.2250   46.7030  112.0020 O.2   103  PRO103     -0.2718
     54  CB        37.1890   44.6540  114.3350 C.3   103  PRO103      0.0282
     55  CG        36.8710   45.1680  115.6990 C.3   103  PRO103      0.0208
     56  CD        36.9120   46.6480  115.5020 C.3   103  PRO103      0.0893
     57  N         38.9060   45.3060  111.4700 N.am  104  ASN104     -0.1961
     58  CA        38.7780   45.5730  110.0300 C.3   104  ASN104      0.1819
     59  C         37.7150   44.6570  109.4410 C.2   104  ASN104      0.2621
     60  O         37.0510   44.9970  108.4620 O.2   104  ASN104     -0.2715
     61  CB        40.0790   45.3190  109.2490 C.3   104  ASN104      0.1195
     62  CG        41.3410   45.4000  110.1050 C.2   104  ASN104      0.2630
     63  OD1       42.4540   45.2600  109.5800 O.2   104  ASN104     -0.2716
     64  ND2       41.1850   45.6080  111.4150 N.am  104  ASN104     -0.0877
     65  N         37.5910   43.4810  110.0450 N.am  105  LYS105     -0.1964
     66  CA        36.6260   42.4650  109.6370 C.3   105  LYS105      0.1713
     67  C         36.1910   41.7340  110.9040 C.2   105  LYS105      0.2458
     68  O         36.9470   41.6920  111.8800 O.2   105  LYS105     -0.2730
     69  CB        37.2820   41.4820  108.6730 C.3   105  LYS105      0.0311
     70  CG        38.6610   41.0800  109.1190 C.3   105  LYS105      0.0038
     71  CD        39.1540   39.9480  108.3020 C.3   105  LYS105      0.0206
     72  CE        39.4240   40.3940  106.9020 C.3   105  LYS105      0.1093
     73  NZ        39.8510   39.2310  106.0870 N.3   105  LYS105     -0.1314
     74  N         34.9640   41.1660  110.9150 N.am  106  PRO106     -0.2716
     75  CA        34.4880   40.4500  112.0980 C.3   106  PRO106      0.1536
     76  C         35.2580   39.1530  112.3190 C.2   106  PRO106      0.2598
     77  O         36.1070   38.7710  111.5050 O.2   106  PRO106     -0.2715
     78  CB        33.0150   40.2190  111.7880 C.3   106  PRO106      0.0310
     79  CG        33.0060   40.0970  110.3150 C.3   106  PRO106      0.0237
     80  CD        33.9250   41.1970  109.8770 C.3   106  PRO106      0.0939
     81  N         34.9710   38.4970  113.4370 N.am  107  ILE107     -0.1964
     82  CA        35.6220   37.2510  113.8040 C.3   107  ILE107      0.1727
     83  C         34.7420   36.0870  113.3970 C.2   107  ILE107      0.2616
     84  O         33.5380   36.0910  113.6350 O.2   107  ILE107     -0.2715
     85  CB        35.8540   37.1600  115.3390 C.3   107  ILE107      0.0290
     86  CG1       36.7720   38.2770  115.8120 C.3   107  ILE107      0.0022
     87  CG2       36.5030   35.8340  115.6970 C.3   107  ILE107      0.0023
     88  CD1       38.1890   38.0920  115.4010 C.3   107  ILE107      0.0001
     89  N         35.3590   35.0920  112.7760 N.am  108  GLN108     -0.1963
     90  CA        34.6870   33.8730  112.3400 C.3   108  GLN108      0.1733
     91  C         34.9930   32.7750  113.3730 C.2   108  GLN108      0.2616
     92  O         36.0090   32.0960  113.2730 O.2   108  GLN108     -0.2715
     93  CB        35.2340   33.5050  110.9630 C.3   108  GLN108      0.0408
     94  CG        34.5900   34.3030  109.8540 C.3   108  GLN108      0.0908
     95  CD        33.2010   33.7800  109.5810 C.2   108  GLN108      0.2608
     96  OE1       32.4440   33.5050  110.5190 O.2   108  GLN108     -0.2717
     97  NE2       32.8550   33.6220  108.3030 N.am  108  GLN108     -0.0878
     98  N         34.1420   32.6010  114.3770 N.am  109  PHE109     -0.1960
     99  CA        34.4400   31.5810  115.3840 C.3   109  PHE109      0.1756
    100  C         34.4150   30.1710  114.7840 C.2   109  PHE109      0.2461
    101  O         33.5830   29.8750  113.9210 O.2   109  PHE109     -0.2730
    102  CB        33.4580   31.6430  116.5640 C.3   109  PHE109      0.0574
    103  CG        34.0250   31.0860  117.8320 C.ar  109  PHE109     -0.0200
    104  CD1       34.9610   31.8090  118.5580 C.ar  109  PHE109     -0.0042
    105  CD2       33.6740   29.8220  118.2740 C.ar  109  PHE109     -0.0042
    106  CE1       35.5490   31.2830  119.7140 C.ar  109  PHE109     -0.0003
    107  CE2       34.2540   29.2840  119.4240 C.ar  109  PHE109     -0.0003
    108  CZ        35.1960   30.0220  120.1430 C.ar  109  PHE109     -0.0000
    109  N         35.3440   29.2880  115.2200 N.am  110  PRO110     -0.2727
    110  CA        35.4110   27.9140  114.7230 C.3   110  PRO110      0.1402
    111  C         34.3380   27.0860  115.4040 C.2   110  PRO110      0.2269
    112  O         33.7470   27.5430  116.3800 O.2   110  PRO110     -0.2865
    113  CB        36.8170   27.4840  115.1250 C.3   110  PRO110      0.0296
    114  CG        37.0030   28.1650  116.4000 C.3   110  PRO110      0.0237
    115  CD        36.4910   29.5560  116.1060 C.3   110  PRO110      0.0939
    116  N         38.1120   40.2930  131.4570 N.3   186  ASN186     -0.1240
    117  CA        37.5650   40.3250  130.0890 C.3   186  ASN186      0.1653
    118  C         36.0780   39.9870  129.9540 C.2   186  ASN186      0.2266
    119  O         35.5230   40.0290  128.8450 O.2   186  ASN186     -0.2867
    120  CB        38.3670   39.3800  129.1860 C.3   186  ASN186      0.1155
    121  CG        39.8660   39.5110  129.3950 C.2   186  ASN186      0.2627
    122  OD1       40.3990   40.6280  129.4890 O.2   186  ASN186     -0.2716
    123  ND2       40.5600   38.3700  129.4640 N.am  186  ASN186     -0.0877
    124  N         36.3650   26.5000  122.6420 N.3   199  TRP199     -0.1241
    125  CA        37.1230   25.8440  121.5810 C.3   199  TRP199      0.1605
    126  C         38.5890   25.5890  121.9300 C.2   199  TRP199      0.2264
    127  O         39.2540   26.4520  122.4850 O.2   199  TRP199     -0.2867
    128  CB        37.0460   26.6850  120.3060 C.3   199  TRP199      0.0550
    129  CG        37.9720   26.2250  119.2380 C.ar  199  TRP199      0.0003
    130  CD1       37.9430   25.0370  118.5630 C.ar  199  TRP199      0.0946
    131  CD2       39.1080   26.9340  118.7500 C.ar  199  TRP199      0.0152
    132  NE1       38.9930   24.9710  117.6770 N.ar  199  TRP199     -0.2442
    133  CE2       39.7110   26.1260  117.7700 C.ar  199  TRP199      0.0810
    134  CE3       39.6480   28.1900  119.0310 C.ar  199  TRP199      0.0012
    135  CZ2       40.8620   26.5280  117.0950 C.ar  199  TRP199      0.0191
    136  CZ3       40.7890   28.5840  118.3600 C.ar  199  TRP199      0.0001
    137  CH2       41.3760   27.7640  117.3920 C.ar  199  TRP199      0.0015
    138  N         45.9400   27.0860  121.1280 N.3   204  LYS204     -0.1231
    139  CA        44.8290   27.9730  120.8230 C.3   204  LYS204      0.1693
    140  C         43.5150   27.6780  121.5470 C.2   204  LYS204      0.2592
    141  O         42.8670   26.6660  121.2820 O.2   204  LYS204     -0.2718
    142  CB        44.6270   28.0040  119.3080 C.3   204  LYS204      0.0285
    143  CG        45.8570   28.5430  118.5930 C.3   204  LYS204      0.0035
    144  CD        45.6600   28.7270  117.0980 C.3   204  LYS204      0.0206
    145  CE        46.9490   29.2330  116.4460 C.3   204  LYS204      0.1093
    146  NZ        46.8200   29.4230  114.9700 N.3   204  LYS204     -0.1314
    147  N         43.1450   28.5670  122.4720 N.am  205  VAL205     -0.1966
    148  CA        41.9030   28.4470  123.2440 C.3   205  VAL205      0.1727
    149  C         41.1320   29.7680  123.2350 C.2   205  VAL205      0.2616
    150  O         41.6940   30.8380  123.4680 O.2   205  VAL205     -0.2715
    151  CB        42.1510   28.0490  124.7350 C.3   205  VAL205      0.0290
    152  CG1       42.7330   26.6560  124.8250 C.3   205  VAL205      0.0023
    153  CG2       43.0640   29.0490  125.3960 C.3   205  VAL205      0.0023
    154  N         39.8350   29.6780  122.9820 N.am  206  ALA206     -0.1977
    155  CA        39.0000   30.8580  122.9170 C.3   206  ALA206      0.1597
    156  C         37.5640   30.4890  123.2320 C.2   206  ALA206      0.2287
    157  O         37.1170   29.3960  122.9010 O.2   206  ALA206     -0.2864
    158  CB        39.0790   31.4550  121.5330 C.3   206  ALA206      0.0319
    159  N         33.6100   37.3060  121.8370 N.3   217  VAL217     -0.1231
    160  CA        34.6080   36.2630  121.6100 C.3   217  VAL217      0.1692
    161  C         35.7640   36.6630  122.5250 C.2   217  VAL217      0.2592
    162  O         36.2840   37.7750  122.4380 O.2   217  VAL217     -0.2718
    163  CB        35.0820   36.1900  120.1270 C.3   217  VAL217      0.0266
    164  CG1       36.1220   35.0900  119.9720 C.3   217  VAL217      0.0020
    165  CG2       33.9100   35.9040  119.2080 C.3   217  VAL217      0.0020
    166  N         36.1390   35.7580  123.4210 N.am  218  ILE218     -0.1966
    167  CA        37.1930   36.0100  124.3920 C.3   218  ILE218      0.1727
    168  C         38.3510   35.0230  124.3080 C.2   218  ILE218      0.2616
    169  O         38.1530   33.8160  124.2220 O.2   218  ILE218     -0.2715
    170  CB        36.6110   35.9720  125.8150 C.3   218  ILE218      0.0290
    171  CG1       35.6370   37.1380  126.0090 C.3   218  ILE218      0.0022
    172  CG2       37.7140   36.0410  126.8250 C.3   218  ILE218      0.0023
    173  CD1       34.7480   37.0510  127.2510 C.3   218  ILE218      0.0001
    174  N         39.5690   35.5490  124.3380 N.am  219  ALA219     -0.1963
    175  CA        40.7510   34.7150  124.2760 C.3   219  ALA219      0.1728
    176  C         40.9110   34.1220  125.6550 C.2   219  ALA219      0.2616
    177  O         40.7380   34.8170  126.6480 O.2   219  ALA219     -0.2715
    178  CB        41.9590   35.5520  123.9210 C.3   219  ALA219      0.0334
    179  N         41.2330   32.8390  125.7290 N.am  220  MET220     -0.1963
    180  CA        41.4080   32.2080  127.0240 C.3   220  MET220      0.1736
    181  C         42.8650   32.1050  127.4620 C.2   220  MET220      0.2616
    182  O         43.7560   31.9570  126.6330 O.2   220  MET220     -0.2715
    183  CB        40.7560   30.8380  127.0090 C.3   220  MET220      0.0427
    184  CG        39.2420   30.9180  126.9100 C.3   220  MET220      0.0599
    185  SD        38.4550   29.3410  127.2860 S.3   220  MET220     -0.1393
    186  CE        38.4950   28.6110  125.7690 C.3   220  MET220      0.0692
    187  N         43.1110   32.1740  128.7670 N.am  221  GLU221     -0.1963
    188  CA        44.4770   32.1060  129.2880 C.3   221  GLU221      0.1733
    189  C         45.2910   30.8380  128.9620 C.2   221  GLU221      0.2616
    190  O         44.7490   29.7750  128.6720 O.2   221  GLU221     -0.2715
    191  CB        44.4630   32.3280  130.8020 C.3   221  GLU221      0.0429
    192  CG        43.8370   33.6370  131.2450 C.3   221  GLU221      0.1163
    193  CD        44.3500   34.8320  130.4660 C.2   221  GLU221      0.3649
    194  OE1       45.5870   35.0550  130.4250 O.co2 221  GLU221     -0.2457
    195  OE2       43.5010   35.5540  129.8920 O.co2 221  GLU221     -0.2457
    196  N         46.6130   30.9890  129.0220 N.am  222  ALA222     -0.1977
    197  CA        47.5740   29.9230  128.7540 C.3   222  ALA222      0.1597
    198  C         47.4970   28.7860  129.7540 C.2   222  ALA222      0.2287
    199  O         47.9880   27.6900  129.4920 O.2   222  ALA222     -0.2864
    200  CB        48.9860   30.4980  128.7520 C.3   222  ALA222      0.0319
@<TRIPOS>BOND
     1    73    72    1
     2    72    71    1
     3    71    70    1
     4    97    95   am
     5    60    59    2
     6    69    70    1
     7    69    66    1
     8    61    58    1
     9    61    62    1
    10    59    58    1
    11    59    65   am
    12    63    62    2
    13    95    94    1
    14    95    96    2
    15    66    65    1
    16    66    67    1
    17    94    93    1
    18    80    79    1
    19    80    74    1
    20    58    57    1
    21    62    64   am
    22    79    78    1
    23    67    74   am
    24    67    68    2
    25    74    75    1
    26    93    90    1
    27    57    52   am
    28    77    76    2
    29    78    75    1
    30    53    52    2
    31    75    76    1
    32    76    81   am
    33    90    89    1
    34    90    91    1
    35    52    51    1
    36    89    83   am
    37    92    91    2
    38    91    98   am
    39    83    84    2
    40    83    82    1
    41    81    82    1
    42    82    85    1
    43    51    54    1
    44    51    50    1
    45   101   100    2
    46    54    55    1
    47    98    99    1
    48    50    56    1
    49   110   113    1
    50   110   109    1
    51   110   111    1
    52   100   109   am
    53   100    99    1
    54    49    48    1
    55   146   145    1
    56   113   114    1
    57   109   115    1
    58    85    87    1
    59    85    86    1
    60    99   102    1
    61    88    86    1
    62   111   112    2
    63    56    55    1
    64    48    46   ar
    65    48    47   ar
    66   115   114    1
    67    46    44   ar
    68   145   144    1
    69   102   103    1
    70    47    45   ar
    71   135   137   ar
    72   135   133   ar
    73   144   143    1
    74    44    43   ar
    75   137   136   ar
    76    11     9    1
    77   132   133   ar
    78   132   130   ar
    79   133   131   ar
    80   103   105   ar
    81   103   104   ar
    82    45    43   ar
    83     8     9    2
    84     8     7    1
    85    43    42    1
    86   105   107   ar
    87     9    10    1
    88   136   134   ar
    89     6     7    1
    90     6     5    1
    91   104   106   ar
    92   130   129   ar
    93   143   142    1
    94   131   134   ar
    95   131   129   ar
    96     5     2    1
    97   165   163    1
    98   129   128    1
    99   142   139    1
   100    42    39    1
   101   107   108   ar
   102     1     2    1
   103   106   108   ar
   104   164   163    1
   105   163   160    1
   106     2     3    1
   107   128   125    1
   108    39    40    1
   109    39    38    1
   110    40    41    2
   111     4     3    2
   112   139   138    1
   113   139   140    1
   114   141   140    2
   115   158   155    1
   116   140   147   am
   117   125   126    1
   118   125   124    1
   119   160   159    1
   120   160   161    1
   121    38    33   am
   122   126   127    2
   123    34    33    2
   124    21    22    1
   125    21    20    1
   126    23    22    2
   127   162   161    2
   128    33    32    1
   129   147   148    1
   130   161   166   am
   131    22    24   am
   132    20    14   am
   133   157   156    2
   134   155   154    1
   135   155   156    1
   136   154   149   am
   137   149   148    1
   138   149   150    2
   139   148   151    1
   140   166   167    1
   141    24    25    1
   142    27    26    2
   143    14    15    2
   144    14    13    1
   145    32    31    1
   146    32    35    1
   147   178   175    1
   148    26    31   am
   149    26    25    1
   150   169   168    2
   151    12    13    1
   152   175   174    1
   153   175   176    1
   154   168   174   am
   155   168   167    1
   156    25    28    1
   157   167   170    1
   158    13    16    1
   159   151   152    1
   160   151   153    1
   161    37    35    1
   162    35    36    1
   163   176   179   am
   164   176   177    2
   165    18    17    2
   166   179   180    1
   167   186   185    1
   168   170   171    1
   169   170   172    1
   170    28    30    1
   171    28    29    1
   172   171   173    1
   173    16    17    1
   174    17    19   am
   175   182   181    2
   176   184   183    1
   177   184   185    1
   178   183   180    1
   179   180   181    1
   180   181   187   am
   181   190   189    2
   182   200   197    1
   183   197   196    1
   184   197   198    1
   185   187   188    1
   186   119   118    2
   187   189   196   am
   188   189   188    1
   189   120   121    1
   190   120   117    1
   191   188   191    1
   192   121   123   am
   193   121   122    2
   194   199   198    2
   195   195   193   ar
   196   118   117    1
   197   117   116    1
   198   194   193   ar
   199   193   192    1
   200   191   192    1
