@<TRIPOS>MOLECULE
tmp/1b8uA00.pdb
 118 113 0 0 0
SMALL
GASTEIGER

@<TRIPOS>ATOM
      1  N         32.2120   17.5160   30.3350 N.3   132  ASN132     -0.1240
      2  CA        33.2560   18.4400   29.9100 C.3   132  ASN132      0.1653
      3  C         32.8100   19.4990   28.9390 C.2   132  ASN132      0.2266
      4  O         31.8390   19.3050   28.2170 O.2   132  ASN132     -0.2867
      5  CB        34.4410   17.6880   29.3130 C.3   132  ASN132      0.1155
      6  CG        35.4200   17.1920   30.3620 C.2   132  ASN132      0.2627
      7  OD1       36.0820   16.1910   30.1520 O.2   132  ASN132     -0.2716
      8  ND2       35.5650   17.9270   31.4580 N.am  132  ASN132     -0.0877
      9  N         39.0180   12.8700   39.4760 N.3   159  LEU159     -0.1231
     10  CA        39.4850   11.7430   38.6630 C.3   159  LEU159      0.1693
     11  C         40.9990   11.8840   38.4830 C.2   159  LEU159      0.2592
     12  O         41.7350   10.8980   38.5580 O.2   159  LEU159     -0.2718
     13  CB        38.8120   11.7130   37.2900 C.3   159  LEU159      0.0284
     14  CG        39.1480   10.4910   36.4360 C.3   159  LEU159      0.0019
     15  CD1       38.8690    9.2250   37.1970 C.3   159  LEU159      0.0001
     16  CD2       38.3490   10.5160   35.1700 C.3   159  LEU159      0.0001
     17  N         41.4510   13.1140   38.2290 N.am  160  ASP160     -0.1974
     18  CA        42.8740   13.4150   38.0570 C.3   160  ASP160      0.1709
     19  C         43.5930   13.1680   39.4040 C.2   160  ASP160      0.2293
     20  O         44.7770   12.8320   39.4500 O.2   160  ASP160     -0.2864
     21  CB        43.0810   14.8920   37.6760 C.3   160  ASP160      0.1436
     22  CG        42.1650   15.3690   36.5640 C.2   160  ASP160      0.3671
     23  OD1       42.4490   15.1320   35.3780 O.co2 160  ASP160     -0.2456
     24  OD2       41.1760   16.0450   36.8790 O.co2 160  ASP160     -0.2456
     25  N         43.8940    9.4390   39.9900 N.3   163  ARG163     -0.1245
     26  CA        44.8570    8.9060   39.0300 C.3   163  ARG163      0.1563
     27  C         46.3040    9.2380   39.4780 C.2   163  ARG163      0.2260
     28  O         47.2320    8.4650   39.2360 O.2   163  ARG163     -0.2867
     29  CB        44.5980    9.4890   37.6510 C.3   163  ARG163      0.0307
     30  CG        43.3240    9.0360   37.0110 C.3   163  ARG163      0.0489
     31  CD        43.1240    9.8260   35.7720 C.3   163  ARG163      0.2205
     32  NE        42.1170    9.2390   34.9200 N.pl3 163  ARG163     -0.0865
     33  CZ        41.5930    9.8640   33.8810 C.cat 163  ARG163      0.5346
     34  NH1       41.9840   11.0890   33.5920 N.pl3 163  ARG163      0.1354
     35  NH2       40.7050    9.2520   33.1150 N.pl3 163  ARG163      0.1354
     36  N         40.5670   20.6160   34.5790 N.3   188  HIS188     -0.1226
     37  CA        40.4640   19.1930   34.3880 C.3   188  HIS188      0.1752
     38  C         40.8100   19.0540   32.9050 C.2   188  HIS188      0.2597
     39  O         39.9430   19.1120   32.0210 O.2   188  HIS188     -0.2718
     40  CB        39.0440   18.6870   34.6780 C.3   188  HIS188      0.0759
     41  CG        38.8080   17.2930   34.2010 C.ar  188  HIS188      0.0818
     42  ND1       38.1780   17.0180   33.0050 N.ar  188  HIS188     -0.2268
     43  CD2       39.2180   16.1020   34.6920 C.ar  188  HIS188      0.1154
     44  CE1       38.2180   15.7180   32.7770 C.ar  188  HIS188      0.1986
     45  NE2       38.8470   15.1400   33.7850 N.ar  188  HIS188     -0.2212
     46  N         42.0990   18.9520   32.6350 N.am  189  SER189     -0.1938
     47  CA        42.5780   18.8140   31.2740 C.3   189  SER189      0.2040
     48  C         43.9650   18.2030   31.3910 C.2   189  SER189      0.2485
     49  O         44.3810   17.8250   32.4870 O.2   189  SER189     -0.2729
     50  CB        42.6320   20.1850   30.5890 C.3   189  SER189      0.2129
     51  OG        43.6680   21.0030   31.1010 O.3   189  SER189     -0.2179
     52  N         44.6520   17.9790   30.2580 N.am  190  PRO190     -0.2726
     53  CA        45.9840   17.4010   30.4130 C.3   190  PRO190      0.1402
     54  C         46.8590   18.5050   30.9980 C.2   190  PRO190      0.2269
     55  O         47.9450   18.2570   31.5050 O.2   190  PRO190     -0.2865
     56  CB        46.3680   17.0790   28.9720 C.3   190  PRO190      0.0296
     57  CG        45.7520   18.2140   28.2190 C.3   190  PRO190      0.0237
     58  CD        44.3740   18.2680   28.8380 C.3   190  PRO190      0.0939
     59  N         49.4880   10.9540   34.2990 N.3   224  VAL224     -0.1231
     60  CA        48.2510   11.3760   34.9150 C.3   224  VAL224      0.1692
     61  C         47.5430   12.2780   33.9010 C.2   224  VAL224      0.2593
     62  O         46.4190   12.0100   33.5090 O.2   224  VAL224     -0.2718
     63  CB        48.5330   12.1380   36.2050 C.3   224  VAL224      0.0266
     64  CG1       47.2730   12.7950   36.7020 C.3   224  VAL224      0.0020
     65  CG2       49.0590   11.1880   37.2600 C.3   224  VAL224      0.0020
     66  N         48.2630   13.2820   33.4000 N.am  225  GLY225     -0.1942
     67  CA        47.6980   14.2110   32.4360 C.3   225  GLY225      0.2014
     68  C         47.0410   13.6180   31.1980 C.2   225  GLY225      0.2639
     69  O         46.1160   14.2240   30.6320 O.2   225  GLY225     -0.2714
     70  N         47.5550   12.4860   30.7240 N.am  226  LYS226     -0.1963
     71  CA        47.0020   11.8220   29.5430 C.3   226  LYS226      0.1728
     72  C         46.4870   10.4260   29.8390 C.2   226  LYS226      0.2616
     73  O         46.4900    9.5710   28.9530 O.2   226  LYS226     -0.2715
     74  CB        48.0420   11.7150   28.4270 C.3   226  LYS226      0.0311
     75  CG        48.1390   12.9340   27.5260 C.3   226  LYS226      0.0038
     76  CD        48.9580   12.6160   26.2750 C.3   226  LYS226      0.0206
     77  CE        48.2670   11.5580   25.3970 C.3   226  LYS226      0.1093
     78  NZ        47.1080   12.1040   24.6310 N.3   226  LYS226     -0.1314
     79  N         46.0660   10.1820   31.0740 N.am  227  ARG227     -0.1963
     80  CA        45.5630    8.8670   31.4490 C.3   227  ARG227      0.1729
     81  C         44.2680    8.5680   30.7220 C.2   227  ARG227      0.2617
     82  O         44.0580    7.4520   30.2690 O.2   227  ARG227     -0.2715
     83  CB        45.3400    8.7840   32.9620 C.3   227  ARG227      0.0348
     84  CG        44.7470    7.4610   33.4620 C.3   227  ARG227      0.0492
     85  CD        45.6710    6.2310   33.2970 C.3   227  ARG227      0.2205
     86  NE        45.4260    5.2700   34.3690 N.pl3 227  ARG227     -0.0865
     87  CZ        46.3180    4.4080   34.8480 C.cat 227  ARG227      0.5346
     88  NH1       47.5380    4.3500   34.3460 N.pl3 227  ARG227      0.1354
     89  NH2       46.0150    3.6700   35.9020 N.pl3 227  ARG227      0.1354
     90  N         43.4120    9.5790   30.6100 N.am  228  GLY228     -0.1940
     91  CA        42.1360    9.4090   29.9470 C.3   228  GLY228      0.2014
     92  C         42.2870    8.8460   28.5600 C.2   228  GLY228      0.2638
     93  O         41.6100    7.9030   28.1800 O.2   228  GLY228     -0.2714
     94  N         43.1810    9.4420   27.7910 N.am  229  ALA229     -0.1977
     95  CA        43.4240    8.9870   26.4360 C.3   229  ALA229      0.1597
     96  C         44.0150    7.5770   26.4280 C.2   229  ALA229      0.2287
     97  O         43.7620    6.8100   25.4960 O.2   229  ALA229     -0.2864
     98  CB        44.3300    9.9550   25.7210 C.3   229  ALA229      0.0319
     99  N         41.3530    5.1150   26.4890 N.3   232  ILE232     -0.1245
    100  CA        40.7340    4.9750   25.1800 C.3   232  ILE232      0.1561
    101  C         41.6340    4.1440   24.2600 C.2   232  ILE232      0.2260
    102  O         41.1620    3.5470   23.3020 O.2   232  ILE232     -0.2867
    103  CB        40.4240    6.3700   24.5790 C.3   232  ILE232      0.0252
    104  CG1       39.4960    7.1300   25.5290 C.3   232  ILE232      0.0019
    105  CG2       39.7570    6.2550   23.2120 C.3   232  ILE232      0.0019
    106  CD1       39.1540    8.5390   25.1060 C.3   232  ILE232      0.0001
    107  N         35.8990    5.6040   26.4960 N.3   238  SER238     -0.1202
    108  CA        36.2740    6.5060   27.5950 C.3   238  SER238      0.2020
    109  C         36.3750    5.8390   28.9770 C.2   238  SER238      0.2619
    110  O         36.1790    4.6360   29.0990 O.2   238  SER238     -0.2717
    111  CB        35.2750    7.6640   27.6390 C.3   238  SER238      0.2103
    112  OG        35.0020    8.1540   26.3240 O.3   238  SER238     -0.2182
    113  N         36.6890    6.6140   30.0120 N.am  239  SER239     -0.1951
    114  CA        36.8040    6.0550   31.3580 C.3   239  SER239      0.1924
    115  C         35.5510    6.2820   32.2140 C.2   239  SER239      0.2314
    116  O         35.5630    7.0330   33.1880 O.2   239  SER239     -0.2863
    117  CB        38.0510    6.5950   32.0560 C.3   239  SER239      0.2116
    118  OG        38.0560    8.0110   32.0390 O.3   239  SER239     -0.2180
@<TRIPOS>BOND
     1   105   103    1
     2   102   101    2
     3   101   100    1
     4   103   100    1
     5   103   104    1
     6    78    77    1
     7   106   104    1
     8   100    99    1
     9    77    76    1
    10    97    96    2
    11    98    95    1
    12    76    75    1
    13   112   111    1
    14    96    95    1
    15    95    94    1
    16   107   108    1
    17    75    74    1
    18   108   111    1
    19   108   109    1
    20    94    92   am
    21    93    92    2
    22     4     3    2
    23    57    58    1
    24    57    56    1
    25    74    71    1
    26    92    91    1
    27    58    52    1
    28     3     2    1
    29    73    72    2
    30    56    53    1
    31   109   110    2
    32   109   113   am
    33     5     2    1
    34     5     6    1
    35    71    72    1
    36    71    70    1
    37    72    79   am
    38     2     1    1
    39    91    90    1
    40   113   114    1
    41     7     6    2
    42    52    53    1
    43    52    48   am
    44    82    81    2
    45     6     8   am
    46    53    54    1
    47    50    51    1
    48    50    47    1
    49    90    81   am
    50    69    68    2
    51    81    80    1
    52    70    68   am
    53    54    55    2
    54    79    80    1
    55    68    67    1
    56    47    48    1
    57    47    46    1
    58   114   117    1
    59   114   115    1
    60    48    49    2
    61    80    83    1
    62    39    38    2
    63   118   117    1
    64   115   116    2
    65    67    66    1
    66    46    38   am
    67    44    42   ar
    68    44    45   ar
    69    38    37    1
    70    83    84    1
    71    42    41   ar
    72    35    33    1
    73    85    84    1
    74    85    86    1
    75    66    61   am
    76    62    61    2
    77    34    33    1
    78    45    43   ar
    79    33    32    2
    80    61    60    1
    81    41    40    1
    82    41    43   ar
    83    59    60    1
    84    88    87    1
    85    86    87    2
    86    37    36    1
    87    37    40    1
    88    87    89    1
    89    60    63    1
    90    32    31    1
    91    16    14    1
    92    23    22   ar
    93    31    30    1
    94    63    64    1
    95    63    65    1
    96    14    15    1
    97    14    13    1
    98    22    24   ar
    99    22    21    1
   100    30    29    1
   101    13    10    1
   102    29    26    1
   103    21    18    1
   104    18    17    1
   105    18    19    1
   106    17    11   am
   107    11    12    2
   108    11    10    1
   109    10     9    1
   110    26    27    1
   111    26    25    1
   112    28    27    2
   113    19    20    2
