@<TRIPOS>MOLECULE
tmp/1b8yA00.pdb
 199 200 0 0 0
SMALL
GASTEIGER

@<TRIPOS>ATOM
      1  N         19.9890    0.4770   25.8560 N.3    80  ASN80      -0.1225
      2  CA        18.6390    0.1790   25.3520 C.3    80  ASN80       0.1785
      3  C         17.7340    1.4160   25.1930 C.2    80  ASN80       0.2597
      4  O         18.1290    2.3440   24.4930 O.2    80  ASN80      -0.2718
      5  CB        17.9730   -0.9950   26.1040 C.3    80  ASN80       0.1169
      6  CG        18.7670   -2.2950   26.0140 C.2    80  ASN80       0.2627
      7  OD1       19.1720   -2.7770   24.9630 O.2    80  ASN80      -0.2716
      8  ND2       18.9370   -2.8860   27.2090 N.am   80  ASN80      -0.0877
      9  N         16.5380    1.4200   25.8420 N.am   81  VAL81      -0.1966
     10  CA        15.6740    2.6060   25.7850 C.3    81  VAL81       0.1727
     11  C         16.2790    3.7450   26.5500 C.2    81  VAL81       0.2616
     12  O         16.5300    3.6470   27.7340 O.2    81  VAL81      -0.2715
     13  CB        14.2890    2.3280   26.3670 C.3    81  VAL81       0.0290
     14  CG1       13.3300    3.5330   26.3330 C.3    81  VAL81       0.0023
     15  CG2       13.6830    1.1350   25.6460 C.3    81  VAL81       0.0023
     16  N         16.4950    4.8310   25.8120 N.am   82  LEU82      -0.1963
     17  CA        17.0960    6.0210   26.4030 C.3    82  LEU82       0.1728
     18  C         16.0860    6.9810   26.9650 C.2    82  LEU82       0.2616
     19  O         16.3810    7.6970   27.9080 O.2    82  LEU82      -0.2715
     20  CB        17.9480    6.7780   25.3870 C.3    82  LEU82       0.0311
     21  CG        18.8900    5.8860   24.5710 C.3    82  LEU82       0.0022
     22  CD1       19.6070    6.6900   23.4900 C.3    82  LEU82       0.0001
     23  CD2       19.8760    5.1250   25.4580 C.3    82  LEU82       0.0001
     24  N         14.8960    6.9770   26.3280 N.am   83  ALA83      -0.1963
     25  CA        13.8400    7.9250   26.6660 C.3    83  ALA83       0.1728
     26  C         12.5690    7.4760   25.9990 C.2    83  ALA83       0.2616
     27  O         12.6040    6.5920   25.1630 O.2    83  ALA83      -0.2715
     28  CB        14.1650    9.3140   26.1150 C.3    83  ALA83       0.0334
     29  N         11.4600    8.1310   26.3870 N.am   84  HIS84      -0.1973
     30  CA        10.2080    7.9590   25.6490 C.3    84  HIS84       0.1656
     31  C          9.2420    9.1090   25.8800 C.2    84  HIS84       0.2291
     32  O          9.3700    9.8580   26.8330 O.2    84  HIS84      -0.2864
     33  CB         9.5300    6.6020   25.9050 C.3    84  HIS84       0.0771
     34  CG         9.1560    6.3210   27.3430 C.ar   84  HIS84       0.0820
     35  ND1        9.3890    5.1310   27.9150 N.ar   84  HIS84      -0.2267
     36  CD2        8.5210    7.1410   28.2670 C.ar   84  HIS84       0.1154
     37  CE1        8.9160    5.1560   29.1940 C.ar   84  HIS84       0.1986
     38  NE2        8.3920    6.3950   29.3900 N.ar   84  HIS84      -0.2212
     39  N         19.8500   15.6800   20.9230 N.3   115  LEU115     -0.1231
     40  CA        19.3170   14.8480   19.8340 C.3   115  LEU115      0.1693
     41  C         18.1500   13.9900   20.2630 C.2   115  LEU115      0.2591
     42  O         17.1600   13.8740   19.5540 O.2   115  LEU115     -0.2718
     43  CB        20.4000   13.9570   19.2100 C.3   115  LEU115      0.0284
     44  CG        21.5050   14.7260   18.4750 C.3   115  LEU115      0.0019
     45  CD1       22.6870   13.8240   18.1420 C.3   115  LEU115      0.0001
     46  CD2       20.9760   15.4430   17.2270 C.3   115  LEU115      0.0001
     47  N         18.3080   13.4070   21.4780 N.am  116  VAL116     -0.1980
     48  CA        17.2010   12.6140   22.0340 C.3   116  VAL116      0.1595
     49  C         15.9520   13.4440   22.3650 C.2   116  VAL116      0.2287
     50  O         14.8450   13.0310   22.0620 O.2   116  VAL116     -0.2864
     51  CB        17.6690   11.7280   23.2240 C.3   116  VAL116      0.0276
     52  CG1       16.5330   10.9280   23.8850 C.3   116  VAL116      0.0022
     53  CG2       18.7750   10.7580   22.7740 C.3   116  VAL116      0.0022
     54  N         13.9850   14.3820   19.1700 N.3   119  HIS119     -0.1226
     55  CA        13.2510   13.1940   18.7510 C.3   119  HIS119      0.1752
     56  C         11.9890   12.9430   19.5640 C.2   119  HIS119      0.2595
     57  O         10.9200   12.7090   19.0250 O.2   119  HIS119     -0.2718
     58  CB        14.1960   12.0050   18.8360 C.3   119  HIS119      0.0759
     59  CG        13.5790   10.7280   18.3210 C.ar  119  HIS119      0.0818
     60  ND1       13.6230   10.3810   17.0290 N.ar  119  HIS119     -0.2268
     61  CD2       12.9260    9.7090   19.0200 C.ar  119  HIS119      0.1154
     62  CE1       13.0220    9.1650   16.8850 C.ar  119  HIS119      0.1986
     63  NE2       12.6010    8.7620   18.1110 N.ar  119  HIS119     -0.2212
     64  N         12.1720   13.0210   20.8970 N.am  120  GLU120     -0.1979
     65  CA        11.0270   12.8640   21.7970 C.3   120  GLU120      0.1602
     66  C          9.9470   13.9180   21.6540 C.2   120  GLU120      0.2287
     67  O          8.7680   13.6150   21.7490 O.2   120  GLU120     -0.2864
     68  CB        11.4380   12.7820   23.2770 C.3   120  GLU120      0.0415
     69  CG        12.4400   11.6780   23.6170 C.3   120  GLU120      0.1163
     70  CD        11.9720   10.3150   23.1410 C.2   120  GLU120      0.3649
     71  OE1       10.7760   10.0330   23.2300 O.co2 120  GLU120     -0.2457
     72  OE2       12.8160    9.5470   22.6820 O.co2 120  GLU120     -0.2457
     73  N          7.5960   13.0370   18.9280 N.3   123  HIS123     -0.1241
     74  CA         6.4770   12.2540   19.4850 C.3   123  HIS123      0.1621
     75  C          5.3860   13.0270   20.2110 C.2   123  HIS123      0.2264
     76  O          4.1960   12.8110   19.9910 O.2   123  HIS123     -0.2867
     77  CB         6.9580   11.1990   20.4630 C.3   123  HIS123      0.0745
     78  CG         7.7540   10.1720   19.7270 C.ar  123  HIS123      0.0817
     79  ND1        7.3590    9.6220   18.5700 N.ar  123  HIS123     -0.2268
     80  CD2        8.9560    9.5990   20.1270 C.ar  123  HIS123      0.1154
     81  CE1        8.2880    8.6900   18.2140 C.ar  123  HIS123      0.1986
     82  NE2        9.2540    8.6910   19.1790 N.ar  123  HIS123     -0.2212
     83  N          7.4580    6.9370   13.8400 N.3   129  HIS129     -0.1241
     84  CA         8.7470    6.6990   13.2000 C.3   129  HIS129      0.1621
     85  C          8.7760    6.7720   11.6970 C.2   129  HIS129      0.2264
     86  O          7.8620    6.3440   11.0100 O.2   129  HIS129     -0.2867
     87  CB         9.3050    5.3600   13.6440 C.3   129  HIS129      0.0745
     88  CG         9.7070    5.4510   15.0850 C.ar  129  HIS129      0.0817
     89  ND1        9.5550    4.4400   15.9450 N.ar  129  HIS129     -0.2268
     90  CD2       10.3220    6.5200   15.7420 C.ar  129  HIS129      0.1154
     91  CE1       10.0730    4.8450   17.1420 C.ar  129  HIS129      0.1986
     92  NE2       10.5390    6.1170   17.0030 N.ar  129  HIS129     -0.2212
     93  N         17.8820    9.3640    7.2250 N.3   134  GLU134     -0.1231
     94  CA        18.2860   10.7420    7.4930 C.3   134  GLU134      0.1699
     95  C         17.4720   11.4490    8.5740 C.2   134  GLU134      0.2592
     96  O         17.8870   12.4500    9.1530 O.2   134  GLU134     -0.2718
     97  CB        18.2050   11.5430    6.1890 C.3   134  GLU134      0.0402
     98  CG        18.9380   12.8960    6.2410 C.3   134  GLU134      0.1161
     99  CD        18.7690   13.7090    4.9660 C.2   134  GLU134      0.3649
    100  OE1       18.3480   13.1640    3.9430 O.co2 134  GLU134     -0.2457
    101  OE2       19.0700   14.9010    5.0030 O.co2 134  GLU134     -0.2457
    102  N         16.2590   10.8930    8.7850 N.am  135  ALA135     -0.1966
    103  CA        15.2660   11.6370    9.5590 C.3   135  ALA135      0.1728
    104  C         15.5680   11.6560   11.0360 C.2   135  ALA135      0.2616
    105  O         16.1190   10.7160   11.5910 O.2   135  ALA135     -0.2715
    106  CB        13.8700   11.0430    9.3580 C.3   135  ALA135      0.0334
    107  N         15.1350   12.7700   11.6470 N.am  136  LEU136     -0.1977
    108  CA        15.1280   12.8640   13.1060 C.3   136  LEU136      0.1596
    109  C         14.3170   11.7460   13.7360 C.2   136  LEU136      0.2287
    110  O         14.7500   11.1080   14.6870 O.2   136  LEU136     -0.2864
    111  CB        14.6440   14.2640   13.5340 C.3   136  LEU136      0.0297
    112  CG        14.6210   14.4970   15.0430 C.3   136  LEU136      0.0022
    113  CD1       15.9900   14.2390   15.6810 C.3   136  LEU136      0.0001
    114  CD2       14.1430   15.9090   15.3500 C.3   136  LEU136      0.0001
    115  N         13.7730    8.7640   12.7690 N.3   138  TYR138     -0.1228
    116  CA        14.2520    7.3870   12.5980 C.3   138  TYR138      0.1721
    117  C         14.2790    6.6820   13.9610 C.2   138  TYR138      0.2437
    118  O         14.5470    7.3250   14.9620 O.2   138  TYR138     -0.2733
    119  CB        15.6400    7.4880   11.9230 C.3   138  TYR138      0.0547
    120  CG        16.1300    6.1600   11.3770 C.ar  138  TYR138     -0.0200
    121  CD1       15.4490    5.5620   10.2920 C.ar  138  TYR138     -0.0009
    122  CD2       17.2530    5.5590   11.9740 C.ar  138  TYR138     -0.0009
    123  CE1       15.8860    4.3150    9.8170 C.ar  138  TYR138      0.0417
    124  CE2       17.6940    4.3140   11.5000 C.ar  138  TYR138      0.0417
    125  CZ        17.0030    3.7130   10.4290 C.ar  138  TYR138      0.1957
    126  OH        17.4470    2.4950    9.9570 O.3   138  TYR138     -0.2866
    127  N         13.9350    5.3750   14.0050 N.am  139  PRO139     -0.2718
    128  CA        13.7940    4.7030   15.3050 C.3   139  PRO139      0.1535
    129  C         15.0570    4.2920   16.0360 C.2   139  PRO139      0.2598
    130  O         14.9840    3.8200   17.1610 O.2   139  PRO139     -0.2715
    131  CB        12.9350    3.4930   14.9600 C.3   139  PRO139      0.0310
    132  CG        13.3130    3.1630   13.5210 C.3   139  PRO139      0.0237
    133  CD        13.5160    4.5300   12.8930 C.3   139  PRO139      0.0939
    134  N         16.2130    4.4510   15.3770 N.am  140  LEU140     -0.1964
    135  CA        17.3980    3.9850   16.0930 C.3   140  LEU140      0.1728
    136  C         18.3170    5.1360   16.3780 C.2   140  LEU140      0.2616
    137  O         18.5810    5.9410   15.4960 O.2   140  LEU140     -0.2715
    138  CB        18.1860    2.9550   15.2820 C.3   140  LEU140      0.0311
    139  CG        17.3860    1.7630   14.7430 C.3   140  LEU140      0.0022
    140  CD1       18.2340    0.9560   13.7530 C.3   140  LEU140      0.0001
    141  CD2       16.7720    0.8900   15.8510 C.3   140  LEU140      0.0001
    142  N         18.7900    5.1620   17.6390 N.am  141  TYR141     -0.1960
    143  CA        19.6750    6.2490   18.0480 C.3   141  TYR141      0.1771
    144  C         21.0040    6.1700   17.3460 C.2   141  TYR141      0.2620
    145  O         21.5590    5.1060   17.0870 O.2   141  TYR141     -0.2715
    146  CB        19.8410    6.2740   19.5900 C.3   141  TYR141      0.0574
    147  CG        20.8320    7.3260   20.0770 C.ar  141  TYR141     -0.0198
    148  CD1       20.3970    8.6600   20.2270 C.ar  141  TYR141     -0.0009
    149  CD2       22.1680    6.9560   20.3520 C.ar  141  TYR141     -0.0009
    150  CE1       21.3250    9.6500   20.5910 C.ar  141  TYR141      0.0417
    151  CE2       23.0990    7.9410   20.7190 C.ar  141  TYR141      0.0417
    152  CZ        22.6610    9.2800   20.8050 C.ar  141  TYR141      0.1957
    153  OH        23.5760   10.2750   21.0820 O.3   141  TYR141     -0.2866
    154  N         21.4780    7.3950   17.0880 N.am  142  HIS142     -0.1959
    155  CA        22.8730    7.6260   16.7200 C.3   142  HIS142      0.1787
    156  C         23.1540    9.0880   16.9300 C.2   142  HIS142      0.2621
    157  O         22.2300    9.8820   17.0630 O.2   142  HIS142     -0.2715
    158  CB        23.1420    7.1940   15.2650 C.3   142  HIS142      0.0785
    159  CG        22.3690    8.0330   14.2680 C.ar  142  HIS142      0.0821
    160  ND1       22.8410    9.1740   13.7320 N.ar  142  HIS142     -0.2267
    161  CD2       21.1030    7.7790   13.7400 C.ar  142  HIS142      0.1154
    162  CE1       21.8890    9.6490   12.8690 C.ar  142  HIS142      0.1986
    163  NE2       20.8290    8.7890   12.8790 N.ar  142  HIS142     -0.2212
    164  N         24.4500    9.4230   16.9320 N.am  143  SER143     -0.1936
    165  CA        24.7080   10.8590   16.9470 C.3   143  SER143      0.2055
    166  C         25.4350   11.2930   15.6930 C.2   143  SER143      0.2642
    167  O         25.4110   10.5930   14.6900 O.2   143  SER143     -0.2714
    168  CB        25.3980   11.2970   18.2420 C.3   143  SER143      0.2130
    169  OG        26.7080   10.7500   18.2880 O.3   143  SER143     -0.2179
    170  N         26.0580   12.4860   15.8000 N.am  144  LEU144     -0.1977
    171  CA        26.7470   13.0710   14.6560 C.3   144  LEU144      0.1596
    172  C         28.1990   13.2850   14.9960 C.2   144  LEU144      0.2287
    173  O         28.5750   13.5170   16.1310 O.2   144  LEU144     -0.2864
    174  CB        26.1630   14.4470   14.3020 C.3   144  LEU144      0.0297
    175  CG        24.7420   14.4800   13.7470 C.3   144  LEU144      0.0022
    176  CD1       24.2750   15.9130   13.5400 C.3   144  LEU144      0.0001
    177  CD2       24.6080   13.6720   12.4600 C.3   144  LEU144      0.0001
    178  N         23.5670   19.4610   12.2340 N.3   150  PHE150     -0.1227
    179  CA        22.2120   18.9900   12.4770 C.3   150  PHE150      0.1736
    180  C         21.1850   19.8290   11.7480 C.2   150  PHE150      0.2595
    181  O         21.1760   21.0510   11.7970 O.2   150  PHE150     -0.2718
    182  CB        21.9050   18.9380   13.9870 C.3   150  PHE150      0.0547
    183  CG        20.4920   18.4300   14.1850 C.ar  150  PHE150     -0.0202
    184  CD1       20.2500   17.0420   14.1730 C.ar  150  PHE150     -0.0042
    185  CD2       19.4380   19.3630   14.3270 C.ar  150  PHE150     -0.0042
    186  CE1       18.9240   16.5820   14.2690 C.ar  150  PHE150     -0.0003
    187  CE2       18.1120   18.9090   14.4140 C.ar  150  PHE150     -0.0003
    188  CZ        17.8690   17.5190   14.3720 C.ar  150  PHE150     -0.0000
    189  N         20.3020   19.0640   11.0910 N.am  151  ARG151     -0.1980
    190  CA        19.1070   19.6470   10.5040 C.3   151  ARG151      0.1597
    191  C         18.0090   18.5890   10.4210 C.2   151  ARG151      0.2287
    192  O         18.2410   17.3970   10.2590 O.2   151  ARG151     -0.2864
    193  CB        19.4190   20.2490    9.1160 C.3   151  ARG151      0.0334
    194  CG        19.7650   19.1700    8.0730 C.3   151  ARG151      0.0492
    195  CD        19.8600   19.6860    6.6490 C.3   151  ARG151      0.2205
    196  NE        19.9830   18.5750    5.7090 N.pl3 151  ARG151     -0.0865
    197  CZ        20.2700   18.8420    4.4200 C.cat 151  ARG151      0.5346
    198  NH1       20.5270   20.0870    4.0180 N.pl3 151  ARG151      0.1354
    199  NH2       20.3010   17.8510    3.5320 N.pl3 151  ARG151      0.1354
@<TRIPOS>BOND
     1   199   197    1
     2   100    99   ar
     3   198   197    1
     4   197   196    2
     5    99   101   ar
     6    99    98    1
     7   196   195    1
     8    97    98    1
     9    97    94    1
    10   195   194    1
    11    93    94    1
    12    94    95    1
    13   194   193    1
    14    95   102   am
    15    95    96    2
    16   102   103    1
    17   193   190    1
    18   106   103    1
    19   103   104    1
    20   123   121   ar
    21   123   125   ar
    22   126   125    1
    23   192   191    2
    24   121   120   ar
    25   191   190    1
    26   125   124   ar
    27   190   189    1
    28    86    85    2
    29   104   105    2
    30   104   107   am
    31   189   180   am
    32   120   119    1
    33   120   122   ar
    34   124   122   ar
    35   107   108    1
    36    85    84    1
    37   180   181    2
    38   180   179    1
    39   119   116    1
    40   178   179    1
    41   177   175    1
    42   179   182    1
    43   116   115    1
    44   116   117    1
    45   162   163   ar
    46   162   160   ar
    47   163   161   ar
    48   133   132    1
    49   133   127    1
    50   108   111    1
    51   108   109    1
    52    84    87    1
    53    84    83    1
    54   132   131    1
    55   111   112    1
    56   176   175    1
    57    87    88    1
    58   160   159   ar
    59   109   110    2
    60   161   159   ar
    61   175   174    1
    62   140   139    1
    63   117   127   am
    64   117   118    2
    65   182   183    1
    66   127   128    1
    67   184   183   ar
    68   184   186   ar
    69   183   185   ar
    70   159   158    1
    71   186   188   ar
    72   174   171    1
    73   185   187   ar
    74   188   187   ar
    75   171   172    1
    76   171   170    1
    77   167   166    2
    78   139   138    1
    79   139   141    1
    80   131   128    1
    81   172   173    2
    82   112   114    1
    83   112   113    1
    84    88    90   ar
    85    88    89   ar
    86   158   155    1
    87   138   135    1
    88   128   129    1
    89   134   129   am
    90   134   135    1
    91   137   136    2
    92   166   170   am
    93   166   165    1
    94    90    92   ar
    95    89    91   ar
    96   129   130    2
    97   135   136    1
    98   136   142   am
    99   155   156    1
   100   155   154    1
   101    62    60   ar
   102    62    63   ar
   103   156   164   am
   104   156   157    2
   105   164   165    1
   106   165   168    1
   107    92    91   ar
   108    60    59   ar
   109   145   144    2
   110   154   144   am
   111    46    44    1
   112   144   143    1
   113   142   143    1
   114   143   146    1
   115    63    61   ar
   116    45    44    1
   117    81    79   ar
   118    81    82   ar
   119   168   169    1
   120    59    58    1
   121    59    61   ar
   122    44    43    1
   123    79    78   ar
   124    55    58    1
   125    55    54    1
   126    55    56    1
   127    73    74    1
   128    57    56    2
   129    82    80   ar
   130    43    40    1
   131    74    75    1
   132    74    77    1
   133    42    41    2
   134    56    64   am
   135   146   147    1
   136    78    80   ar
   137    78    77    1
   138    40    41    1
   139    40    39    1
   140    76    75    2
   141   147   148   ar
   142   147   149   ar
   143   148   150   ar
   144    41    47   am
   145   149   151   ar
   146   150   152   ar
   147   151   152   ar
   148   152   153    1
   149    64    65    1
   150    47    48    1
   151    66    67    2
   152    66    65    1
   153    65    68    1
   154    48    49    1
   155    48    51    1
   156    50    49    2
   157    72    70   ar
   158    53    51    1
   159    70    71   ar
   160    70    69    1
   161    51    52    1
   162    68    69    1
   163    22    21    1
   164     4     3    2
   165    21    20    1
   166    21    23    1
   167     7     6    2
   168    27    26    2
   169     3     2    1
   170     3     9   am
   171     2     1    1
   172     2     5    1
   173    20    17    1
   174    15    13    1
   175    30    31    1
   176    30    33    1
   177    30    29    1
   178    10     9    1
   179    10    13    1
   180    10    11    1
   181    16    17    1
   182    16    11   am
   183    31    32    2
   184    33    34    1
   185    26    29   am
   186    26    25    1
   187     6     5    1
   188     6     8   am
   189    28    25    1
   190    24    25    1
   191    24    18   am
   192    14    13    1
   193    17    18    1
   194    11    12    2
   195    18    19    2
   196    34    35   ar
   197    34    36   ar
   198    35    37   ar
   199    36    38   ar
   200    37    38   ar
