@<TRIPOS>MOLECULE
tmp/1b99D00.pdb
 96 90 0 0 0
SMALL
GASTEIGER

@<TRIPOS>ATOM
      1  N          8.1630   16.8320  -15.6990 N.3    51  TYR51      -0.1241
      2  CA         9.1220   17.9220  -15.5980 C.3    51  TYR51       0.1605
      3  C          8.7430   19.1350  -16.4320 C.2    51  TYR51       0.2264
      4  O          9.6020   19.9460  -16.7720 O.2    51  TYR51      -0.2867
      5  CB        10.4970   17.4270  -16.0330 C.3    51  TYR51       0.0534
      6  CG        11.1800   16.4980  -15.0570 C.ar   51  TYR51      -0.0201
      7  CD1       11.5480   16.9400  -13.7910 C.ar   51  TYR51      -0.0009
      8  CD2       11.5410   15.2020  -15.4300 C.ar   51  TYR51      -0.0009
      9  CE1       12.2660   16.1250  -12.9270 C.ar   51  TYR51       0.0417
     10  CE2       12.2700   14.3740  -14.5660 C.ar   51  TYR51       0.0417
     11  CZ        12.6300   14.8460  -13.3190 C.ar   51  TYR51       0.1957
     12  OH        13.4070   14.0700  -12.4810 O.3    51  TYR51      -0.2866
     13  N         10.2910   22.7020  -16.2850 N.3    54  HIS54      -0.1241
     14  CA        11.6550   22.8840  -16.7460 C.3    54  HIS54       0.1621
     15  C         11.8060   22.7430  -18.2640 C.2    54  HIS54       0.2264
     16  O         12.9240   22.7940  -18.7730 O.2    54  HIS54      -0.2867
     17  CB        12.5720   21.8620  -16.0560 C.3    54  HIS54       0.0745
     18  CG        12.4470   21.8290  -14.5580 C.ar   54  HIS54       0.0817
     19  ND1       11.2910   22.1740  -13.8930 N.ar   54  HIS54      -0.2268
     20  CD2       13.3300   21.4560  -13.6010 C.ar   54  HIS54       0.1154
     21  CE1       11.4630   22.0150  -12.5920 C.ar   54  HIS54       0.1986
     22  NE2       12.6960   21.5790  -12.3870 N.ar   54  HIS54      -0.2212
     23  N         18.9260   21.7540  -18.8240 N.3    59  PHE59      -0.1241
     24  CA        18.9610   20.3940  -18.2890 C.3    59  PHE59       0.1605
     25  C         17.7180   19.5230  -18.5160 C.2    59  PHE59       0.2264
     26  O         17.7790   18.3070  -18.3230 O.2    59  PHE59      -0.2867
     27  CB        19.3300   20.4250  -16.7960 C.3    59  PHE59       0.0534
     28  CG        18.5350   21.4170  -15.9780 C.ar   59  PHE59      -0.0203
     29  CD1       17.2160   21.1540  -15.6240 C.ar   59  PHE59      -0.0042
     30  CD2       19.1250   22.5940  -15.5180 C.ar   59  PHE59      -0.0042
     31  CE1       16.4990   22.0410  -14.8240 C.ar   59  PHE59      -0.0003
     32  CE2       18.4110   23.4920  -14.7140 C.ar   59  PHE59      -0.0003
     33  CZ        17.0960   23.2100  -14.3670 C.ar   59  PHE59      -0.0000
     34  N         16.9960   15.4640  -17.8640 N.3    63  LEU63      -0.1245
     35  CA        16.0720   14.9830  -16.8430 C.3    63  LEU63       0.1561
     36  C         15.1640   13.8940  -17.4240 C.2    63  LEU63       0.2260
     37  O         15.1030   12.7740  -16.8990 O.2    63  LEU63      -0.2867
     38  CB        15.2110   16.1270  -16.3120 C.3    63  LEU63       0.0270
     39  CG        15.9040   17.2410  -15.5370 C.3    63  LEU63       0.0019
     40  CD1       14.8770   18.2700  -15.1280 C.3    63  LEU63       0.0001
     41  CD2       16.6040   16.6800  -14.3200 C.3    63  LEU63       0.0001
     42  N         10.0260   16.8170    1.9370 N.3    87  ARG87      -0.1245
     43  CA        11.1570   17.5720    1.3860 C.3    87  ARG87       0.1563
     44  C         12.2360   17.9090    2.4160 C.2    87  ARG87       0.2260
     45  O         13.4310   17.9120    2.1080 O.2    87  ARG87      -0.2867
     46  CB        10.6590   18.8240    0.6870 C.3    87  ARG87       0.0307
     47  CG         9.8390   18.4640   -0.5010 C.3    87  ARG87       0.0489
     48  CD         9.6820   19.6210   -1.3840 C.3    87  ARG87       0.2205
     49  NE        10.9620   20.0770   -1.8990 N.pl3  87  ARG87      -0.0865
     50  CZ        11.3400   19.9920   -3.1730 C.cat  87  ARG87       0.5346
     51  NH1       10.5620   19.4190   -4.0830 N.pl3  87  ARG87       0.1354
     52  NH2       12.5230   20.4650   -3.5370 N.pl3  87  ARG87       0.1354
     53  N         18.4520   20.3490   -3.1300 N.3    93  THR93      -0.1218
     54  CA        18.8390   19.9850   -4.4820 C.3    93  THR93       0.1862
     55  C         20.2460   19.4080   -4.6210 C.2    93  THR93       0.2287
     56  O         20.4350   18.4100   -5.3110 O.2    93  THR93      -0.2866
     57  CB        18.6770   21.1730   -5.4350 C.3    93  THR93       0.1770
     58  OG1       17.4360   21.8350   -5.1460 O.3    93  THR93      -0.2211
     59  CG2       18.6580   20.6820   -6.8910 C.3    93  THR93       0.0375
     60  N         19.3240   12.6760    0.7760 N.3   104  ARG104     -0.1245
     61  CA        20.4000   13.1520   -0.0880 C.3   104  ARG104      0.1563
     62  C         21.6600   13.4560    0.7120 C.2   104  ARG104      0.2260
     63  O         22.7680   13.2580    0.2240 O.2   104  ARG104     -0.2867
     64  CB        19.9560   14.3830   -0.8610 C.3   104  ARG104      0.0307
     65  CG        18.8890   14.0980   -1.9130 C.3   104  ARG104      0.0489
     66  CD        18.4630   15.3780   -2.5980 C.3   104  ARG104      0.2205
     67  NE        17.4580   15.1600   -3.6390 N.pl3 104  ARG104     -0.0865
     68  CZ        16.6470   16.1010   -4.1150 C.cat 104  ARG104      0.5346
     69  NH1       16.7260   17.3290   -3.6490 N.pl3 104  ARG104      0.1354
     70  NH2       15.7640   15.8200   -5.0700 N.pl3 104  ARG104      0.1354
     71  N         20.6440   12.7390   -7.7920 N.3   114  ASN114     -0.1240
     72  CA        20.1870   13.0570   -6.4420 C.3   114  ASN114      0.1653
     73  C         19.1390   12.1300   -5.8070 C.2   114  ASN114      0.2266
     74  O         18.3010   12.5750   -5.0340 O.2   114  ASN114     -0.2867
     75  CB        19.7730   14.5390   -6.3350 C.3   114  ASN114      0.1155
     76  CG        18.4900   14.8520   -7.0680 C.2   114  ASN114      0.2627
     77  OD1       18.0020   14.0540   -7.8580 O.2   114  ASN114     -0.2716
     78  ND2       17.9440   16.0250   -6.8220 N.am  114  ASN114     -0.0877
     79  N         12.8140   12.1470   -5.7850 N.3   117  HIS117     -0.1241
     80  CA        12.0200   13.3100   -6.1480 C.3   117  HIS117      0.1621
     81  C         10.8840   13.4340   -5.1550 C.2   117  HIS117      0.2264
     82  O         10.2980   12.4440   -4.7770 O.2   117  HIS117     -0.2867
     83  CB        11.4450   13.1560   -7.5570 C.3   117  HIS117      0.0745
     84  CG        10.2460   14.0180   -7.8210 C.ar  117  HIS117      0.0817
     85  ND1       10.3440   15.3340   -8.2280 N.ar  117  HIS117     -0.2268
     86  CD2        8.9220   13.7840   -7.6400 C.ar  117  HIS117      0.1154
     87  CE1        9.1400   15.8760   -8.2690 C.ar  117  HIS117      0.1986
     88  NE2        8.2610   14.9570   -7.9200 N.ar  117  HIS117     -0.2212
     89  N          7.0360   19.6830   -4.4440 N.3   120  ASP120     -0.1239
     90  CA         7.4420   20.9230   -3.7680 C.3   120  ASP120      0.1674
     91  C          6.3070   21.7220   -3.1260 C.2   120  ASP120      0.2266
     92  O          6.5580   22.7340   -2.4640 O.2   120  ASP120     -0.2867
     93  CB         8.1920   21.8360   -4.7460 C.3   120  ASP120      0.1410
     94  CG         7.3560   22.1980   -5.9950 C.2   120  ASP120      0.3668
     95  OD1        6.1140   22.1000   -5.9510 O.co2 120  ASP120     -0.2456
     96  OD2        7.9400   22.5890   -7.0350 O.co2 120  ASP120     -0.2456
@<TRIPOS>BOND
     1    23    24    1
     2    16    15    2
     3    25    26    2
     4    25    24    1
     5    24    27    1
     6    15    14    1
     7    34    35    1
     8    36    37    2
     9    36    35    1
    10    35    38    1
    11    27    28    1
    12     4     3    2
    13    14    13    1
    14    14    17    1
    15     3     2    1
    16    38    39    1
    17    17    18    1
    18     5     2    1
    19     5     6    1
    20    28    29   ar
    21    28    30   ar
    22     1     2    1
    23    29    31   ar
    24    39    40    1
    25    39    41    1
    26    30    32   ar
    27     8     6   ar
    28     8    10   ar
    29     6     7   ar
    30    31    33   ar
    31    32    33   ar
    32    10    11   ar
    33    18    19   ar
    34    18    20   ar
    35    19    21   ar
    36     7     9   ar
    37    20    22   ar
    38    11     9   ar
    39    11    12    1
    40    21    22   ar
    41    87    85   ar
    42    87    88   ar
    43    85    84   ar
    44    88    86   ar
    45    77    76    2
    46    84    86   ar
    47    84    83    1
    48    71    72    1
    49    83    80    1
    50    76    78   am
    51    76    75    1
    52    96    94   ar
    53    59    57    1
    54    72    75    1
    55    72    73    1
    56    80    79    1
    57    80    81    1
    58    94    95   ar
    59    94    93    1
    60    73    74    2
    61    57    58    1
    62    57    54    1
    63    56    55    2
    64    81    82    2
    65    70    68    1
    66    93    90    1
    67    55    54    1
    68    54    53    1
    69    89    90    1
    70    68    69    1
    71    68    67    2
    72    51    50    1
    73    90    91    1
    74    67    66    1
    75    52    50    1
    76    50    49    2
    77    91    92    2
    78    66    65    1
    79    65    64    1
    80    49    48    1
    81    48    47    1
    82    64    61    1
    83    47    46    1
    84    61    62    1
    85    61    60    1
    86    63    62    2
    87    46    43    1
    88    43    42    1
    89    43    44    1
    90    45    44    2
