@<TRIPOS>MOLECULE
tmp/1b99A00.pdb
 140 132 0 0 0
SMALL
GASTEIGER

@<TRIPOS>ATOM
      1  N          1.9670   -8.7670    4.1380 N.3    11  LYS11      -0.1245
      2  CA         0.5390   -8.8100    4.4060 C.3    11  LYS11       0.1561
      3  C          0.0320   -7.6300    5.2050 C.2    11  LYS11       0.2260
      4  O          0.8250   -6.8980    5.7770 O.2    11  LYS11      -0.2867
      5  CB         0.2060  -10.1600    5.0480 C.3    11  LYS11       0.0271
      6  CG         0.5620  -11.3340    4.1230 C.3    11  LYS11       0.0035
      7  CD        -0.1670  -12.6180    4.4840 C.3    11  LYS11       0.0206
      8  CE         0.3830  -13.2820    5.7390 C.3    11  LYS11       0.1093
      9  NZ        -0.2070  -14.6460    5.9450 N.3    11  LYS11      -0.1314
     10  N         -4.5220  -18.9610   -2.0380 N.3    51  TYR51      -0.1241
     11  CA        -4.4080  -19.9670   -0.9900 C.3    51  TYR51       0.1605
     12  C         -5.2380  -21.2440   -1.2290 C.2    51  TYR51       0.2264
     13  O         -5.7710  -21.8340   -0.2860 O.2    51  TYR51      -0.2867
     14  CB        -4.7880  -19.3300    0.3460 C.3    51  TYR51       0.0534
     15  CG        -3.7340  -18.4260    0.9350 C.ar   51  TYR51      -0.0201
     16  CD1       -2.3710  -18.6510    0.6930 C.ar   51  TYR51      -0.0009
     17  CD2       -4.0920  -17.3080    1.6750 C.ar   51  TYR51      -0.0009
     18  CE1       -1.3980  -17.7730    1.1660 C.ar   51  TYR51       0.0417
     19  CE2       -3.1430  -16.4320    2.1460 C.ar   51  TYR51       0.0417
     20  CZ        -1.7980  -16.6570    1.8870 C.ar   51  TYR51       0.1957
     21  OH        -0.8750  -15.7140    2.3040 O.3    51  TYR51      -0.2866
     22  N         -4.5390  -24.4640   -1.8240 N.3    53  GLU53      -0.1231
     23  CA        -4.1430  -25.6070   -0.9990 C.3    53  GLU53       0.1699
     24  C         -4.6640  -25.6370    0.4430 C.2    53  GLU53       0.2592
     25  O         -4.6840  -26.6970    1.0860 O.2    53  GLU53      -0.2718
     26  CB        -2.6110  -25.7530   -0.9990 C.3    53  GLU53       0.0402
     27  CG        -1.8430  -24.5310   -0.5210 C.3    53  GLU53       0.1161
     28  CD        -0.3310  -24.7470   -0.4840 C.2    53  GLU53       0.3649
     29  OE1        0.1380  -25.5800    0.3260 O.co2  53  GLU53      -0.2457
     30  OE2        0.3900  -24.0730   -1.2560 O.co2  53  GLU53      -0.2457
     31  N         -5.0960  -24.4890    0.9540 N.am   54  HIS54      -0.1976
     32  CA        -5.5920  -24.4310    2.3230 C.3    54  HIS54       0.1656
     33  C         -7.1060  -24.4620    2.4010 C.2    54  HIS54       0.2291
     34  O         -7.6490  -24.6140    3.4830 O.2    54  HIS54      -0.2864
     35  CB        -5.0200  -23.2010    3.0460 C.3    54  HIS54       0.0771
     36  CG        -3.5280  -23.0950    2.9470 C.ar   54  HIS54       0.0820
     37  ND1       -2.6700  -24.0190    3.5110 N.ar   54  HIS54      -0.2267
     38  CD2       -2.7440  -22.2300    2.2610 C.ar   54  HIS54       0.1154
     39  CE1       -1.4270  -23.7380    3.1650 C.ar   54  HIS54       0.1986
     40  NE2       -1.4430  -22.6550    2.4070 N.ar   54  HIS54      -0.2212
     41  N         -8.8030  -26.6550    4.7930 N.3    57  ARG57      -0.1245
     42  CA        -8.2890  -26.5170    6.1390 C.3    57  ARG57       0.1563
     43  C         -9.2090  -25.5990    6.9470 C.2    57  ARG57       0.2260
     44  O         -9.7130  -24.6020    6.4280 O.2    57  ARG57      -0.2867
     45  CB        -6.8820  -25.9640    6.0510 C.3    57  ARG57       0.0307
     46  CG        -6.0000  -26.8790    5.2650 C.3    57  ARG57       0.0489
     47  CD        -4.7150  -26.2550    4.8420 C.3    57  ARG57       0.2205
     48  NE        -3.5480  -26.3800    5.7210 N.pl3  57  ARG57      -0.0865
     49  CZ        -3.5220  -26.8330    6.9750 C.cat  57  ARG57       0.5346
     50  NH1       -4.6190  -27.2640    7.5910 N.pl3  57  ARG57       0.1354
     51  NH2       -2.3580  -26.8580    7.6290 N.pl3  57  ARG57       0.1354
     52  N         -8.8080  -23.1590    8.8320 N.3    59  PHE59      -0.1241
     53  CA        -8.5150  -21.7290    8.8800 C.3    59  PHE59       0.1605
     54  C         -8.6170  -20.9530    7.5860 C.2    59  PHE59       0.2264
     55  O         -8.3170  -19.7610    7.5790 O.2    59  PHE59      -0.2867
     56  CB        -7.1340  -21.5080    9.4690 C.3    59  PHE59       0.0534
     57  CG        -6.0510  -22.2280    8.7380 C.ar   59  PHE59      -0.0203
     58  CD1       -5.5520  -21.7320    7.5420 C.ar   59  PHE59      -0.0042
     59  CD2       -5.5250  -23.4130    9.2430 C.ar   59  PHE59      -0.0042
     60  CE1       -4.5510  -22.4020    6.8600 C.ar   59  PHE59      -0.0003
     61  CE2       -4.5260  -24.0820    8.5680 C.ar   59  PHE59      -0.0003
     62  CZ        -4.0350  -23.5740    7.3740 C.ar   59  PHE59      -0.0000
     63  N         -7.9900  -16.7570    6.6580 N.3    63  LEU63      -0.1245
     64  CA        -6.8670  -16.4760    5.7900 C.3    63  LEU63       0.1561
     65  C         -7.3710  -15.5450    4.6950 C.2    63  LEU63       0.2260
     66  O         -6.7880  -14.4920    4.4360 O.2    63  LEU63      -0.2867
     67  CB        -6.3820  -17.7660    5.1460 C.3    63  LEU63       0.0270
     68  CG        -4.9600  -18.2430    5.3850 C.3    63  LEU63       0.0019
     69  CD1       -4.6650  -19.3530    4.3850 C.3    63  LEU63       0.0001
     70  CD2       -3.9870  -17.1020    5.1990 C.3    63  LEU63       0.0001
     71  N         12.7500  -17.8190    1.3160 N.3    87  ARG87      -0.1245
     72  CA        12.1030  -18.5510    2.4110 C.3    87  ARG87       0.1563
     73  C         12.9670  -18.6030    3.6870 C.2    87  ARG87       0.2260
     74  O         12.4660  -18.5230    4.8110 O.2    87  ARG87      -0.2867
     75  CB        11.7070  -19.9580    1.9570 C.3    87  ARG87       0.0307
     76  CG        10.2530  -20.0700    1.4970 C.3    87  ARG87       0.0489
     77  CD         9.4800  -21.1350    2.2960 C.3    87  ARG87       0.2205
     78  NE         8.0180  -20.9800    2.3500 N.pl3  87  ARG87      -0.0865
     79  CZ         7.1730  -21.8890    2.8410 C.cat  87  ARG87       0.5346
     80  NH1        7.1470  -22.1570    4.1380 N.pl3  87  ARG87       0.1354
     81  NH2        6.3470  -22.5470    2.0260 N.pl3  87  ARG87       0.1354
     82  N          6.9600  -21.1270    9.4610 N.3    93  THR93      -0.1218
     83  CA         5.5480  -20.8670    9.6790 C.3    93  THR93       0.1862
     84  C          5.2120  -20.1730   11.0020 C.2    93  THR93       0.2287
     85  O          4.4430  -19.2030   11.0230 O.2    93  THR93      -0.2866
     86  CB         4.7330  -22.1850    9.5380 C.3    93  THR93       0.1770
     87  OG1        5.0790  -22.8180    8.2950 O.3    93  THR93      -0.2211
     88  CG2        3.2340  -21.9140    9.5620 C.3    93  THR93       0.0375
     89  N         10.3770  -13.1930   10.1720 N.3   104  ARG104     -0.1245
     90  CA         9.4120  -13.6390   11.1690 C.3   104  ARG104      0.1563
     91  C         10.0560  -13.7950   12.5430 C.2   104  ARG104      0.2260
     92  O          9.4370  -13.4980   13.5510 O.2   104  ARG104     -0.2867
     93  CB         8.7770  -14.9640   10.7540 C.3   104  ARG104      0.0307
     94  CG         7.7850  -14.8620    9.6150 C.3   104  ARG104      0.0489
     95  CD         7.0490  -16.1690    9.4290 C.3   104  ARG104      0.2205
     96  NE         5.9700  -16.0320    8.4600 N.pl3 104  ARG104     -0.0865
     97  CZ         5.6880  -16.9210    7.5220 C.cat 104  ARG104      0.5346
     98  NH1        6.3880  -18.0380    7.4340 N.pl3 104  ARG104      0.1354
     99  NH2        4.6880  -16.7050    6.6890 N.pl3 104  ARG104      0.1354
    100  N          1.1300  -17.0590   14.3310 N.3   111  VAL111     -0.1231
    101  CA         1.1370  -17.6960   13.0110 C.3   111  VAL111      0.1692
    102  C          0.0860  -17.1090   12.0560 C.2   111  VAL111      0.2592
    103  O          0.2540  -17.1090   10.8330 O.2   111  VAL111     -0.2718
    104  CB         1.0110  -19.2780   13.1110 C.3   111  VAL111      0.0266
    105  CG1       -0.2060  -19.6980   13.9140 C.3   111  VAL111      0.0020
    106  CG2        0.9250  -19.8860   11.7160 C.3   111  VAL111      0.0020
    107  N         -0.9970  -16.6030   12.6180 N.am  112  GLY112     -0.1957
    108  CA        -2.0200  -16.0000   11.7840 C.3   112  GLY112      0.1869
    109  C         -1.6310  -14.5790   11.3830 C.2   112  GLY112      0.2309
    110  O         -2.1870  -14.0090   10.4390 O.2   112  GLY112     -0.2863
    111  N          1.6560  -13.5820   10.5560 N.3   114  ASN114     -0.1240
    112  CA         3.0550  -13.8490   10.2590 C.3   114  ASN114      0.1653
    113  C          3.7230  -12.9810    9.2050 C.2   114  ASN114      0.2266
    114  O          4.5410  -13.4460    8.4270 O.2   114  ASN114     -0.2867
    115  CB         3.2920  -15.3400    9.9790 C.3   114  ASN114      0.1155
    116  CG         2.6430  -15.8100    8.7020 C.2   114  ASN114      0.2627
    117  OD1        1.9600  -15.0500    8.0100 O.2   114  ASN114     -0.2716
    118  ND2        2.8620  -17.0700    8.3740 N.am  114  ASN114     -0.0877
    119  N          4.6990  -11.8820    6.3870 N.3   116  ILE116     -0.1231
    120  CA         5.0070  -11.9830    4.9700 C.3   116  ILE116      0.1692
    121  C          4.7460  -13.3450    4.3240 C.2   116  ILE116      0.2592
    122  O          4.6830  -14.3750    4.9940 O.2   116  ILE116     -0.2718
    123  CB         6.5080  -11.5610    4.8060 C.3   116  ILE116      0.0266
    124  CG1        6.9130  -11.4200    3.3530 C.3   116  ILE116      0.0019
    125  CG2        7.4030  -12.5430    5.5190 C.3   116  ILE116      0.0020
    126  CD1        8.3190  -10.9510    3.1930 C.3   116  ILE116      0.0001
    127  N          4.5520  -13.3340    3.0120 N.am  117  HIS117     -0.1962
    128  CA         4.3460  -14.5610    2.2810 C.3   117  HIS117      0.1787
    129  C          5.4970  -14.7210    1.2960 C.2   117  HIS117      0.2620
    130  O          5.9460  -13.7460    0.7170 O.2   117  HIS117     -0.2715
    131  CB         3.0280  -14.5300    1.5150 C.3   117  HIS117      0.0785
    132  CG         2.8850  -15.6760    0.5680 C.ar  117  HIS117      0.0821
    133  ND1        2.4760  -16.9260    0.9830 N.ar  117  HIS117     -0.2267
    134  CD2        3.2670  -15.8150   -0.7240 C.ar  117  HIS117      0.1154
    135  CE1        2.6280  -17.7840   -0.0070 C.ar  117  HIS117      0.1986
    136  NE2        3.1060  -17.1340   -1.0510 N.ar  117  HIS117     -0.2212
    137  N          5.9600  -15.9500    1.0970 N.am  118  GLY118     -0.1954
    138  CA         7.0340  -16.2140    0.1510 C.3   118  GLY118      0.1869
    139  C          6.6590  -17.4910   -0.5810 C.2   118  GLY118      0.2309
    140  O          6.0220  -18.3720    0.0230 O.2   118  GLY118     -0.2863
@<TRIPOS>BOND
     1    10    11    1
     2    22    23    1
     3    30    28   ar
     4    12    11    1
     5    12    13    2
     6   136   134   ar
     7   136   135   ar
     8    26    23    1
     9    26    27    1
    10    23    24    1
    11    11    14    1
    12   134   132   ar
    13   139   140    2
    14   139   138    1
    15    27    28    1
    16    28    29   ar
    17   135   133   ar
    18   138   137    1
    19    14    15    1
    20    24    31   am
    21    24    25    2
    22   132   133   ar
    23   132   131    1
    24    16    15   ar
    25    16    18   ar
    26   130   129    2
    27    15    17   ar
    28    31    32    1
    29   137   129   am
    30    18    20   ar
    31   129   128    1
    32    71    72    1
    33    76    75    1
    34    76    77    1
    35   131   128    1
    36    17    19   ar
    37    20    19   ar
    38    20    21    1
    39    75    72    1
    40    81    79    1
    41    38    40   ar
    42    38    36   ar
    43   128   127    1
    44    77    78    1
    45    32    33    1
    46    32    35    1
    47    78    79    2
    48    33    34    2
    49    40    39   ar
    50    72    73    1
    51    79    80    1
    52    36    35    1
    53    36    37   ar
    54   127   121   am
    55    39    37   ar
    56   126   124    1
    57   124   123    1
    58    73    74    2
    59     6     7    1
    60     6     5    1
    61     1     2    1
    62   121   120    1
    63   121   122    2
    64    69    68    1
    65     2     5    1
    66     2     3    1
    67    66    65    2
    68     7     8    1
    69    65    64    1
    70    41    42    1
    71   123   120    1
    72   123   125    1
    73    47    46    1
    74    47    48    1
    75   120   119    1
    76    67    68    1
    77    67    64    1
    78    70    68    1
    79     3     4    2
    80    46    45    1
    81    48    49    2
    82     8     9    1
    83    64    63    1
    84    45    42    1
    85    42    43    1
    86    44    43    2
    87    99    97    1
    88    60    62   ar
    89    60    58   ar
    90    49    50    1
    91    49    51    1
    92    62    61   ar
    93    98    97    1
    94    97    96    2
    95    58    57   ar
    96    55    54    2
    97    54    53    1
    98   117   116    2
    99    87    86    1
   100   118   116   am
   101   114   113    2
   102    96    95    1
   103    61    59   ar
   104   116   115    1
   105    57    59   ar
   106    57    56    1
   107    52    53    1
   108    53    56    1
   109   113   112    1
   110    95    94    1
   111    82    83    1
   112    86    88    1
   113    86    83    1
   114    94    93    1
   115    83    84    1
   116   115   112    1
   117    89    90    1
   118   112   111    1
   119   110   109    2
   120    93    90    1
   121   103   102    2
   122    84    85    2
   123    90    91    1
   124   109   108    1
   125   106   104    1
   126   108   107    1
   127   102   107   am
   128   102   101    1
   129    91    92    2
   130   101   104    1
   131   101   100    1
   132   104   105    1
