@<TRIPOS>MOLECULE
tmp/1b9hA00.pdb
 147 138 0 0 0
SMALL
GASTEIGER

@<TRIPOS>ATOM
      1  N         22.4160   35.1400    4.7160 N.3    57  ASN57      -0.1225
      2  CA        21.7420   35.5040    5.9560 C.3    57  ASN57       0.1785
      3  C         21.8050   34.2980    6.9160 C.2    57  ASN57       0.2598
      4  O         22.2450   33.2140    6.5210 O.2    57  ASN57      -0.2718
      5  CB        20.3040   35.9760    5.8060 C.3    57  ASN57       0.1169
      6  CG        19.5230   34.9610    4.9880 C.2    57  ASN57       0.2627
      7  OD1       19.2050   33.8420    5.4270 O.2    57  ASN57      -0.2716
      8  ND2       19.1210   35.4480    3.8170 N.am   57  ASN57      -0.0877
      9  N         21.4850   34.5930    8.1840 N.am   58  GLY58      -0.1942
     10  CA        21.5470   33.5070    9.1960 C.3    58  GLY58       0.2014
     11  C         20.5490   32.4270    9.0110 C.2    58  GLY58       0.2639
     12  O         20.7800   31.2350    9.3220 O.2    58  GLY58      -0.2714
     13  N         19.4300   32.7120    8.3140 N.am   59  THR59      -0.1950
     14  CA        18.4320   31.6950    7.9960 C.3    59  THR59       0.1897
     15  C         19.0120   30.7240    6.9640 C.2    59  THR59       0.2313
     16  O         18.9760   29.4750    7.1270 O.2    59  THR59      -0.2863
     17  CB        17.1370   32.4070    7.5390 C.3    59  THR59       0.1794
     18  OG1       16.5450   33.2080    8.5780 O.3    59  THR59      -0.2208
     19  CG2       16.0790   31.4730    7.0240 C.3    59  THR59       0.0378
     20  N         21.5860   28.4700    8.5950 N.3    62  LEU62      -0.1245
     21  CA        21.0520   27.2550    9.1800 C.3    62  LEU62       0.1561
     22  C         20.6190   26.2120    8.1790 C.2    62  LEU62       0.2260
     23  O         20.8500   25.0000    8.3990 O.2    62  LEU62      -0.2867
     24  CB        19.8420   27.5760   10.0790 C.3    62  LEU62       0.0270
     25  CG        20.2410   28.3140   11.3730 C.3    62  LEU62       0.0019
     26  CD1       19.0680   29.2390   11.7510 C.3    62  LEU62       0.0001
     27  CD2       20.5280   27.2490   12.4300 C.3    62  LEU62       0.0001
     28  N         12.6540   30.3480   20.5800 N.3    83  THR83      -0.1203
     29  CA        13.6900   30.8660   19.6880 C.3    83  THR83       0.1994
     30  C         13.0160   31.6580   18.5710 C.2    83  THR83       0.2617
     31  O         11.7970   31.7410   18.4840 O.2    83  THR83      -0.2717
     32  CB        14.5840   29.7540   19.1100 C.3    83  THR83       0.1784
     33  OG1       15.6450   30.2820   18.2940 O.3    83  THR83      -0.2211
     34  CG2       13.8360   28.7250   18.2770 C.3    83  THR83       0.0376
     35  N         13.7590   32.2110   17.6510 N.am   84  PHE84      -0.1975
     36  CA        13.2980   32.8990   16.4560 C.3    84  PHE84       0.1639
     37  C         12.8400   31.8130   15.5040 C.2    84  PHE84       0.2290
     38  O         13.5070   30.7850   15.4860 O.2    84  PHE84      -0.2864
     39  CB        14.3990   33.8180   15.8850 C.3    84  PHE84       0.0560
     40  CG        13.9120   34.5820   14.6660 C.ar   84  PHE84      -0.0200
     41  CD1       12.8760   35.5090   14.8030 C.ar   84  PHE84      -0.0042
     42  CD2       14.4710   34.3630   13.4070 C.ar   84  PHE84      -0.0042
     43  CE1       12.3880   36.2260   13.7100 C.ar   84  PHE84      -0.0003
     44  CE2       13.9870   35.0730   12.3110 C.ar   84  PHE84      -0.0003
     45  CZ        12.9540   36.0010   12.4680 C.ar   84  PHE84      -0.0000
     46  N         13.2730   31.1420   12.4680 N.3    86  SER86      -0.1202
     47  CA        14.2240   30.5560   11.4930 C.3    86  SER86       0.2020
     48  C         14.8170   29.2330   11.9140 C.2    86  SER86       0.2619
     49  O         15.1690   28.3730   11.0600 O.2    86  SER86      -0.2717
     50  CB        15.3770   31.5520   11.2420 C.3    86  SER86       0.2103
     51  OG        14.8450   32.6060   10.3860 O.3    86  SER86      -0.2182
     52  N         15.0100   29.0480   13.2280 N.am   87  SER87      -0.1951
     53  CA        15.5830   27.8260   13.7910 C.3    87  SER87       0.1924
     54  C         14.7430   26.6210   13.3980 C.2    87  SER87       0.2314
     55  O         15.3870   25.6260   13.0000 O.2    87  SER87      -0.2863
     56  CB        15.7690   27.9510   15.2930 C.3    87  SER87       0.2116
     57  OG        16.4400   29.0980   15.7650 O.3    87  SER87      -0.2180
     58  N         20.4120   26.9120   20.8910 N.3   129  VAL129     -0.1245
     59  CA        20.4790   28.3000   20.5850 C.3   129  VAL129      0.1561
     60  C         21.0860   28.9850   21.8190 C.2   129  VAL129      0.2260
     61  O         20.7000   28.6290   22.9370 O.2   129  VAL129     -0.2867
     62  CB        19.0620   28.8600   20.2660 C.3   129  VAL129      0.0252
     63  CG1       19.1010   30.3890   20.2530 C.3   129  VAL129      0.0019
     64  CG2       18.6220   28.3760   18.8920 C.3   129  VAL129      0.0019
     65  N         23.0600   27.2640   17.0160 N.3   155  ASP155     -0.1239
     66  CA        22.4820   28.4410   16.3850 C.3   155  ASP155      0.1674
     67  C         23.0530   29.5850   17.1970 C.2   155  ASP155      0.2266
     68  O         22.4730   30.0040   18.1920 O.2   155  ASP155     -0.2867
     69  CB        20.9700   28.4030   16.2620 C.3   155  ASP155      0.1410
     70  CG        20.4140   29.6540   15.5850 C.2   155  ASP155      0.3668
     71  OD1       21.1770   30.6200   15.3100 O.co2 155  ASP155     -0.2456
     72  OD2       19.1980   29.6800   15.3780 O.co2 155  ASP155     -0.2456
     73  N         23.4340   32.8080   16.3750 N.3   157  ALA157     -0.1231
     74  CA        23.0660   34.1440   15.9130 C.3   157  ALA157      0.1694
     75  C         23.1070   35.2020   16.9870 C.2   157  ALA157      0.2592
     76  O         23.1750   36.4150   16.6690 O.2   157  ALA157     -0.2718
     77  CB        21.6640   34.2260   15.2520 C.3   157  ALA157      0.0304
     78  N         22.9660   34.8690   18.2610 N.am  158  HIS158     -0.1976
     79  CA        23.0070   35.8600   19.3350 C.3   158  HIS158      0.1656
     80  C         24.3900   35.8970   20.0450 C.2   158  HIS158      0.2291
     81  O         24.5890   36.7350   20.9310 O.2   158  HIS158     -0.2864
     82  CB        22.0440   35.3500   20.4500 C.3   158  HIS158      0.0771
     83  CG        20.6220   35.2840   19.9860 C.ar  158  HIS158      0.0820
     84  ND1       19.6010   35.0010   20.8880 N.ar  158  HIS158     -0.2267
     85  CD2       20.0400   35.4280   18.7560 C.ar  158  HIS158      0.1154
     86  CE1       18.4550   35.0020   20.1970 C.ar  158  HIS158      0.1986
     87  NE2       18.6850   35.2770   18.9150 N.ar  158  HIS158     -0.2212
     88  N         24.0650   35.0680   12.3550 N.3   179  SER179     -0.1217
     89  CA        23.3510   36.0540   11.5700 C.3   179  SER179      0.1889
     90  C         24.0970   37.3720   11.6780 C.2   179  SER179      0.2288
     91  O         24.7340   37.6320   12.7160 O.2   179  SER179     -0.2866
     92  CB        21.9200   36.1790   12.0910 C.3   179  SER179      0.2089
     93  OG        21.2710   37.3250   11.5560 O.3   179  SER179     -0.2183
     94  N         22.2160   40.2070   10.5580 N.3   181  GLN181     -0.1245
     95  CA        21.0510   41.0380   10.2760 C.3   181  GLN181      0.1566
     96  C         21.1300   42.2740   11.1520 C.2   181  GLN181      0.2260
     97  O         21.8280   42.2870   12.1630 O.2   181  GLN181     -0.2867
     98  CB        19.7720   40.2290   10.6070 C.3   181  GLN181      0.0367
     99  CG        18.4870   41.0410   10.3560 C.3   181  GLN181      0.0905
    100  CD        18.0440   41.8610   11.5690 C.2   181  GLN181      0.2608
    101  OE1       18.6800   41.5790   12.7060 O.2   181  GLN181     -0.2717
    102  NE2       17.1900   42.7420   11.4870 N.am  181  GLN181     -0.0878
    103  N         21.6030   42.5640   14.9700 N.3   184  LYS184     -0.1245
    104  CA        22.5500   41.6550   15.5990 C.3   184  LYS184      0.1561
    105  C         23.8240   42.3960   16.0630 C.2   184  LYS184      0.2260
    106  O         23.9740   43.6010   15.8340 O.2   184  LYS184     -0.2867
    107  CB        22.8160   40.5030   14.6270 C.3   184  LYS184      0.0271
    108  CG        21.6540   39.6600   14.1440 C.3   184  LYS184      0.0035
    109  CD        20.8900   38.6920   15.0540 C.3   184  LYS184      0.0206
    110  CE        19.4240   38.6050   14.6510 C.3   184  LYS184      0.1093
    111  NZ        18.9190   37.1970   14.6260 N.3   184  LYS184     -0.1314
    112  N         22.1090   42.7710    6.2400 N.3   190  GLU190     -0.1231
    113  CA        21.8630   41.3940    6.0600 C.3   190  GLU190      0.1699
    114  C         23.1990   40.6640    6.0590 C.2   190  GLU190      0.2592
    115  O         24.2030   41.2390    5.6510 O.2   190  GLU190     -0.2718
    116  CB        21.0210   40.9840    4.8050 C.3   190  GLU190      0.0402
    117  CG        19.7070   41.8370    4.7030 C.3   190  GLU190      0.1161
    118  CD        18.6310   41.3310    5.6360 C.2   190  GLU190      0.3649
    119  OE1       18.6830   40.2420    6.2130 O.co2 190  GLU190     -0.2457
    120  OE2       17.5740   41.9650    5.8370 O.co2 190  GLU190     -0.2457
    121  N         23.1430   39.3780    6.3880 N.am  191  GLY191     -0.1957
    122  CA        24.3050   38.5170    6.2500 C.3   191  GLY191      0.1869
    123  C         24.3250   37.3030    7.1610 C.2   191  GLY191      0.2309
    124  O         23.5740   37.3060    8.1280 O.2   191  GLY191     -0.2863
    125  N         23.4950   39.8050   23.4690 N.3   287  TYR287     -0.1241
    126  CA        22.6550   40.2370   22.2920 C.3   287  TYR287      0.1605
    127  C         21.3720   40.8910   22.7360 C.2   287  TYR287      0.2264
    128  O         20.8760   41.8710   22.1810 O.2   287  TYR287     -0.2867
    129  CB        22.5010   39.0390   21.3450 C.3   287  TYR287      0.0534
    130  CG        21.3840   39.2670   20.3310 C.ar  287  TYR287     -0.0201
    131  CD1       21.5040   40.2980   19.4140 C.ar  287  TYR287     -0.0009
    132  CD2       20.1830   38.5810   20.4230 C.ar  287  TYR287     -0.0009
    133  CE1       20.4950   40.6230   18.5300 C.ar  287  TYR287      0.0417
    134  CE2       19.1860   38.8360   19.4890 C.ar  287  TYR287      0.0417
    135  CZ        19.3520   39.8420   18.5650 C.ar  287  TYR287      0.1957
    136  OH        18.3020   40.1400   17.7290 O.3   287  TYR287     -0.2866
    137  N         10.3560   36.2340   22.0340 N.3   319  PHE319     -0.1241
    138  CA         9.8240   35.2840   21.0770 C.3   319  PHE319      0.1605
    139  C          8.5830   34.5720   21.6140 C.2   319  PHE319      0.2264
    140  O          8.3330   34.2080   22.7930 O.2   319  PHE319     -0.2867
    141  CB        10.8660   34.2570   20.7080 C.3   319  PHE319      0.0534
    142  CG        12.2050   34.8180   20.3140 C.ar  319  PHE319     -0.0203
    143  CD1       12.3380   35.5180   19.1410 C.ar  319  PHE319     -0.0042
    144  CD2       13.3380   34.5560   21.0860 C.ar  319  PHE319     -0.0042
    145  CE1       13.5670   36.0060   18.7100 C.ar  319  PHE319     -0.0003
    146  CE2       14.5590   35.0740   20.6720 C.ar  319  PHE319     -0.0003
    147  CZ        14.6900   35.7590   19.4990 C.ar  319  PHE319     -0.0000
@<TRIPOS>BOND
     1     8     6   am
     2   117   116    1
     3   117   118    1
     4     1     2    1
     5   116   113    1
     6     6     7    2
     7     6     5    1
     8   118   120   ar
     9   118   119   ar
    10   115   114    2
    11     5     2    1
    12     2     3    1
    13   114   113    1
    14   114   121   am
    15   113   112    1
    16   122   121    1
    17   122   123    1
    18     4     3    2
    19     3     9   am
    20    15    16    2
    21    15    14    1
    22    19    17    1
    23   123   124    2
    24    17    14    1
    25    17    18    1
    26    14    13    1
    27    22    23    2
    28    22    21    1
    29     9    10    1
    30    13    11   am
    31    20    21    1
    32    11    10    1
    33    11    12    2
    34    21    24    1
    35    24    25    1
    36    95    94    1
    37    95    98    1
    38    95    96    1
    39    99    98    1
    40    99   100    1
    41    51    50    1
    42    49    48    2
    43    96    97    2
    44    50    47    1
    45    25    26    1
    46    25    27    1
    47   102   100   am
    48    47    48    1
    49    47    46    1
    50    93    92    1
    51   100   101    2
    52    89    90    1
    53    89    92    1
    54    89    88    1
    55    90    91    2
    56    48    52   am
    57    44    45   ar
    58    44    42   ar
    59    45    43   ar
    60    55    54    2
    61    52    53    1
    62    54    53    1
    63    42    40   ar
    64    43    41   ar
    65    53    56    1
    66   108   107    1
    67   108   109    1
    68   111   110    1
    69   107   104    1
    70   110   109    1
    71    40    41   ar
    72    40    39    1
    73   103   104    1
    74    77    74    1
    75    56    57    1
    76    71    70   ar
    77    72    70   ar
    78    38    37    2
    79    37    36    1
    80    70    69    1
    81   104   105    1
    82   106   105    2
    83    39    36    1
    84    74    73    1
    85    74    75    1
    86    69    66    1
    87    66    65    1
    88    66    67    1
    89    36    35    1
    90    76    75    2
    91    75    78   am
    92    67    68    2
    93    35    30   am
    94   136   135    1
    95    78    79    1
    96    34    32    1
    97    33    32    1
    98    31    30    2
    99   133   135   ar
   100   133   131   ar
   101   135   134   ar
   102    30    29    1
   103   145   143   ar
   104   145   147   ar
   105    85    87   ar
   106    85    83   ar
   107    64    62    1
   108    87    86   ar
   109    32    29    1
   110   143   142   ar
   111    79    80    1
   112    79    82    1
   113   131   130   ar
   114   134   132   ar
   115   147   146   ar
   116    29    28    1
   117    83    82    1
   118    83    84   ar
   119    80    81    2
   120    86    84   ar
   121    63    62    1
   122    62    59    1
   123   142   141    1
   124   142   144   ar
   125   130   132   ar
   126   130   129    1
   127    59    58    1
   128    59    60    1
   129   146   144   ar
   130   141   138    1
   131   138   139    1
   132   138   137    1
   133   129   126    1
   134   139   140    2
   135    60    61    2
   136   128   127    2
   137   126   127    1
   138   126   125    1
