@<TRIPOS>MOLECULE
tmp/1b9iA00.pdb
 172 164 0 0 0
SMALL
GASTEIGER

@<TRIPOS>ATOM
      1  N         22.4740   35.0150    4.5480 N.3    57  ASN57      -0.1225
      2  CA        21.8500   35.4640    5.8060 C.3    57  ASN57       0.1785
      3  C         21.8640   34.3180    6.8290 C.2    57  ASN57       0.2598
      4  O         22.2240   33.2210    6.4970 O.2    57  ASN57      -0.2718
      5  CB        20.4270   36.0130    5.6770 C.3    57  ASN57       0.1169
      6  CG        19.5660   35.0490    4.8950 C.2    57  ASN57       0.2627
      7  OD1       19.4260   33.8820    5.2170 O.2    57  ASN57      -0.2716
      8  ND2       18.9560   35.4170    3.7630 N.am   57  ASN57      -0.0877
      9  N         21.4570   34.6200    8.0730 N.am   58  GLY58      -0.1942
     10  CA        21.5280   33.5310    9.0920 C.3    58  GLY58       0.2014
     11  C         20.5900   32.3940    8.9040 C.2    58  GLY58       0.2639
     12  O         20.8230   31.2130    9.2480 O.2    58  GLY58      -0.2714
     13  N         19.4340   32.6800    8.2310 N.am   59  THR59      -0.1950
     14  CA        18.4620   31.6350    7.9760 C.3    59  THR59       0.1897
     15  C         19.0630   30.7120    6.9240 C.2    59  THR59       0.2313
     16  O         19.0180   29.4760    6.9890 O.2    59  THR59      -0.2863
     17  CB        17.1370   32.2610    7.4060 C.3    59  THR59       0.1794
     18  OG1       16.6040   33.2420    8.3210 O.3    59  THR59      -0.2208
     19  CG2       16.1200   31.1950    7.0840 C.3    59  THR59       0.0378
     20  N         21.6380   28.4290    8.4410 N.3    62  LEU62      -0.1245
     21  CA        21.0120   27.2480    9.0090 C.3    62  LEU62       0.1561
     22  C         20.5850   26.2220    7.9850 C.2    62  LEU62       0.2260
     23  O         20.8530   25.0090    8.1760 O.2    62  LEU62      -0.2867
     24  CB        19.7890   27.5330    9.8990 C.3    62  LEU62       0.0270
     25  CG        20.1870   28.3150   11.1740 C.3    62  LEU62       0.0019
     26  CD1       18.9270   29.1200   11.5380 C.3    62  LEU62       0.0001
     27  CD2       20.5630   27.3560   12.2710 C.3    62  LEU62       0.0001
     28  N         12.6180   30.4450   20.4910 N.3    83  THR83      -0.1203
     29  CA        13.6530   30.8920   19.5230 C.3    83  THR83       0.1994
     30  C         13.0150   31.6520   18.3450 C.2    83  THR83       0.2617
     31  O         11.7980   31.7060   18.2900 O.2    83  THR83      -0.2717
     32  CB        14.4370   29.7530   18.9120 C.3    83  THR83       0.1784
     33  OG1       15.6550   30.1780   18.1940 O.3    83  THR83      -0.2211
     34  CG2       13.7370   28.7440   18.0310 C.3    83  THR83       0.0376
     35  N         13.8040   32.2790   17.5050 N.am   84  PHE84      -0.1975
     36  CA        13.3440   32.9970   16.3060 C.3    84  PHE84       0.1639
     37  C         12.9050   31.9300   15.3310 C.2    84  PHE84       0.2290
     38  O         13.5550   30.8880   15.2700 O.2    84  PHE84      -0.2864
     39  CB        14.4330   33.9070   15.7030 C.3    84  PHE84       0.0560
     40  CG        13.9140   34.7370   14.5460 C.ar   84  PHE84      -0.0200
     41  CD1       13.0140   35.7460   14.7810 C.ar   84  PHE84      -0.0042
     42  CD2       14.3430   34.4670   13.2250 C.ar   84  PHE84      -0.0042
     43  CE1       12.4830   36.5530   13.7560 C.ar   84  PHE84      -0.0003
     44  CE2       13.8140   35.2670   12.1980 C.ar   84  PHE84      -0.0003
     45  CZ        12.9120   36.2780   12.4650 C.ar   84  PHE84      -0.0000
     46  N         13.3480   31.2400   12.3020 N.3    86  SER86      -0.1202
     47  CA        14.3150   30.6640   11.3520 C.3    86  SER86       0.2020
     48  C         14.9210   29.3390   11.7820 C.2    86  SER86       0.2619
     49  O         15.1300   28.3960   10.9720 O.2    86  SER86      -0.2717
     50  CB        15.4440   31.6610   11.0170 C.3    86  SER86       0.2103
     51  OG        15.0270   32.8890   10.4540 O.3    86  SER86      -0.2182
     52  N         15.0930   29.1680   13.1000 N.am   87  SER87      -0.1951
     53  CA        15.6650   27.9190   13.6540 C.3    87  SER87       0.1924
     54  C         14.8590   26.7020   13.2460 C.2    87  SER87       0.2314
     55  O         15.4590   25.6660   12.9130 O.2    87  SER87      -0.2863
     56  CB        15.7380   28.0400   15.1760 C.3    87  SER87       0.2116
     57  OG        16.4280   29.2320   15.6050 O.3    87  SER87      -0.2180
     58  N         20.3090   26.7770   20.6320 N.3   129  VAL129     -0.1301
     59  CA        20.3670   28.1600   20.2690 C.3   129  VAL129      0.1246
     60  C         21.0230   28.8340   21.4800 C.3   129  VAL129      0.2009
     61  O         20.5030   28.5290   22.5640 O.3   129  VAL129     -0.2188
     62  CB        18.9820   28.8260   19.9980 C.3   129  VAL129      0.0202
     63  CG1       19.1290   30.3540   19.9450 C.3   129  VAL129      0.0016
     64  CG2       18.3950   28.3180   18.7040 C.3   129  VAL129      0.0016
     65  N         22.9890   27.0270   16.8360 N.3   155  ASP155     -0.1239
     66  CA        22.4530   28.2430   16.1690 C.3   155  ASP155      0.1674
     67  C         23.0210   29.3620   16.9940 C.2   155  ASP155      0.2266
     68  O         22.4380   29.8840   17.9410 O.2   155  ASP155     -0.2867
     69  CB        20.9780   28.3490   15.9160 C.3   155  ASP155      0.1410
     70  CG        20.5320   29.7200   15.3860 C.2   155  ASP155      0.3668
     71  OD1       21.3240   30.6670   15.1100 O.co2 155  ASP155     -0.2456
     72  OD2       19.2990   29.8080   15.2810 O.co2 155  ASP155     -0.2456
     73  N         23.3620   32.6110   16.1580 N.3   157  ALA157     -0.1231
     74  CA        23.0050   33.9550   15.6990 C.3   157  ALA157      0.1694
     75  C         23.1470   35.0400   16.7170 C.2   157  ALA157      0.2592
     76  O         23.2640   36.2880   16.5040 O.2   157  ALA157     -0.2718
     77  CB        21.5290   33.9240   15.1290 C.3   157  ALA157      0.0304
     78  N         22.9310   34.7180   18.0080 N.am  158  HIS158     -0.1976
     79  CA        23.0330   35.7320   19.0630 C.3   158  HIS158      0.1656
     80  C         24.4080   35.7820   19.7950 C.2   158  HIS158      0.2291
     81  O         24.6460   36.6090   20.6720 O.2   158  HIS158     -0.2864
     82  CB        22.0410   35.3560   20.2280 C.3   158  HIS158      0.0771
     83  CG        20.6290   35.3150   19.7500 C.ar  158  HIS158      0.0820
     84  ND1       19.5970   35.0330   20.6480 N.ar  158  HIS158     -0.2267
     85  CD2       20.0780   35.5050   18.4960 C.ar  158  HIS158      0.1154
     86  CE1       18.4650   35.0410   19.9340 C.ar  158  HIS158      0.1986
     87  NE2       18.6930   35.3310   18.6530 N.ar  158  HIS158     -0.2212
     88  N         24.2080   35.0160   12.1540 N.3   179  SER179     -0.1217
     89  CA        23.4300   35.9960   11.4570 C.3   179  SER179      0.1889
     90  C         24.1820   37.2950   11.5930 C.2   179  SER179      0.2288
     91  O         24.7030   37.5790   12.6690 O.2   179  SER179     -0.2866
     92  CB        22.0270   36.0810   12.0080 C.3   179  SER179      0.2089
     93  OG        21.3040   37.2060   11.5470 O.3   179  SER179     -0.2183
     94  N         22.2460   39.9520   10.5130 N.3   181  GLN181     -0.1245
     95  CA        21.0690   40.8070   10.3030 C.3   181  GLN181      0.1566
     96  C         21.1850   42.1150   11.0170 C.2   181  GLN181      0.2260
     97  O         21.9260   42.1780   12.0170 O.2   181  GLN181     -0.2867
     98  CB        19.8610   39.9630   10.7910 C.3   181  GLN181      0.0367
     99  CG        18.5450   40.7380   10.6730 C.3   181  GLN181      0.0905
    100  CD        18.2090   41.5450   11.9310 C.2   181  GLN181      0.2608
    101  OE1       18.8640   41.2790   12.9530 O.2   181  GLN181     -0.2717
    102  NE2       17.3190   42.4970   11.8840 N.am  181  GLN181     -0.0878
    103  N         21.8500   42.4420   14.9040 N.3   184  LYS184     -0.1245
    104  CA        22.8430   41.5720   15.4730 C.3   184  LYS184      0.1561
    105  C         24.0590   42.3330   16.0120 C.2   184  LYS184      0.2260
    106  O         24.1240   43.5610   15.8180 O.2   184  LYS184     -0.2867
    107  CB        23.2080   40.4350   14.4950 C.3   184  LYS184      0.0271
    108  CG        21.9850   39.6000   14.1020 C.3   184  LYS184      0.0035
    109  CD        21.5000   38.5470   15.0850 C.3   184  LYS184      0.0206
    110  CE        20.1170   37.9520   14.7650 C.3   184  LYS184      0.1093
    111  NZ        19.1020   39.0510   14.7380 N.3   184  LYS184     -0.1314
    112  N         22.2870   42.7080    6.2190 N.3   190  GLU190     -0.1231
    113  CA        21.9830   41.3170    6.0510 C.3   190  GLU190      0.1699
    114  C         23.3080   40.5660    5.9960 C.2   190  GLU190      0.2592
    115  O         24.3210   41.1110    5.5870 O.2   190  GLU190     -0.2718
    116  CB        21.1080   40.9440    4.8310 C.3   190  GLU190      0.0402
    117  CG        19.7910   41.7320    4.7640 C.3   190  GLU190      0.1161
    118  CD        18.6830   41.2620    5.6650 C.2   190  GLU190      0.3649
    119  OE1       18.7450   40.1160    6.1450 O.co2 190  GLU190     -0.2457
    120  OE2       17.6550   41.9500    5.8780 O.co2 190  GLU190     -0.2457
    121  N         23.2450   39.3070    6.3880 N.am  191  GLY191     -0.1957
    122  CA        24.3620   38.4190    6.1740 C.3   191  GLY191      0.1869
    123  C         24.3930   37.2240    7.1230 C.2   191  GLY191      0.2309
    124  O         23.6480   37.2700    8.0960 O.2   191  GLY191     -0.2863
    125  N         23.5240   39.6570   23.3520 N.3   287  TYR287     -0.1241
    126  CA        22.6900   40.1100   22.1700 C.3   287  TYR287      0.1605
    127  C         21.4040   40.7480   22.6130 C.2   287  TYR287      0.2264
    128  O         20.8640   41.6800   22.0030 O.2   287  TYR287     -0.2867
    129  CB        22.5280   38.9700   21.1620 C.3   287  TYR287      0.0534
    130  CG        21.4110   39.2810   20.1400 C.ar  287  TYR287     -0.0201
    131  CD1       21.5120   40.2920   19.2190 C.ar  287  TYR287     -0.0009
    132  CD2       20.2600   38.5060   20.1450 C.ar  287  TYR287     -0.0009
    133  CE1       20.4560   40.6420   18.3780 C.ar  287  TYR287      0.0417
    134  CE2       19.2200   38.7680   19.2520 C.ar  287  TYR287      0.0417
    135  CZ        19.3240   39.8320   18.3830 C.ar  287  TYR287      0.1957
    136  OH        18.2690   40.0830   17.5220 O.3   287  TYR287     -0.2866
    137  N         10.8580   45.2540   23.4600 N.3   316  PHE316     -0.1241
    138  CA        10.2120   44.2690   22.6910 C.3   316  PHE316      0.1605
    139  C          9.5920   43.1280   23.4850 C.2   316  PHE316      0.2264
    140  O         10.1880   42.5370   24.3960 O.2   316  PHE316     -0.2867
    141  CB        11.3820   43.6620   21.8450 C.3   316  PHE316      0.0534
    142  CG        11.9730   44.6980   20.9130 C.ar  316  PHE316     -0.0203
    143  CD1       11.2560   45.0980   19.7810 C.ar  316  PHE316     -0.0042
    144  CD2       13.1370   45.3890   21.2060 C.ar  316  PHE316     -0.0042
    145  CE1       11.7300   46.1080   18.9550 C.ar  316  PHE316     -0.0003
    146  CE2       13.6200   46.3830   20.3680 C.ar  316  PHE316     -0.0003
    147  CZ        12.9250   46.7460   19.2160 C.ar  316  PHE316     -0.0000
    148  N         10.3950   36.1810   21.8040 N.3   319  PHE319     -0.1241
    149  CA         9.9290   35.2400   20.8140 C.3   319  PHE319      0.1605
    150  C          8.6200   34.5720   21.2350 C.2   319  PHE319      0.2264
    151  O          8.3540   34.4320   22.4180 O.2   319  PHE319     -0.2867
    152  CB        10.9890   34.2000   20.5230 C.3   319  PHE319      0.0534
    153  CG        12.2940   34.8630   20.0800 C.ar  319  PHE319     -0.0203
    154  CD1       12.3170   35.7050   18.9990 C.ar  319  PHE319     -0.0042
    155  CD2       13.4780   34.6050   20.7380 C.ar  319  PHE319     -0.0042
    156  CE1       13.4820   36.3430   18.5870 C.ar  319  PHE319     -0.0003
    157  CE2       14.6590   35.2160   20.3320 C.ar  319  PHE319     -0.0003
    158  CZ        14.6850   36.0800   19.2610 C.ar  319  PHE319     -0.0000
    159  N         12.4600   41.9660   26.1990 N.3   357  TRP357     -0.1241
    160  CA        13.9010   42.1950   25.9340 C.3   357  TRP357      0.1605
    161  C         14.0530   43.6330   25.5350 C.2   357  TRP357      0.2264
    162  O         13.1530   44.3520   25.0050 O.2   357  TRP357     -0.2867
    163  CB        14.5310   41.2470   24.9050 C.3   357  TRP357      0.0550
    164  CG        14.0490   41.2520   23.4870 C.ar  357  TRP357      0.0003
    165  CD1       12.9340   40.5730   23.0620 C.ar  357  TRP357      0.0946
    166  CD2       14.5330   41.9420   22.3340 C.ar  357  TRP357      0.0152
    167  NE1       12.7340   40.7350   21.7100 N.ar  357  TRP357     -0.2442
    168  CE2       13.7180   41.5630   21.2370 C.ar  357  TRP357      0.0810
    169  CE3       15.6030   42.7770   22.0530 C.ar  357  TRP357      0.0012
    170  CZ2       13.9110   42.0450   19.9360 C.ar  357  TRP357      0.0191
    171  CZ3       15.8310   43.2000   20.7520 C.ar  357  TRP357      0.0001
    172  CH2       14.9740   42.8620   19.6780 C.ar  357  TRP357      0.0015
@<TRIPOS>BOND
     1     8     6   am
     2     1     2    1
     3   117   116    1
     4   117   118    1
     5   116   113    1
     6     6     7    2
     7     6     5    1
     8   115   114    2
     9   118   120   ar
    10   118   119   ar
    11     5     2    1
    12     2     3    1
    13   114   113    1
    14   114   121   am
    15   113   112    1
    16   122   121    1
    17   122   123    1
    18     4     3    2
    19     3     9   am
    20    15    16    2
    21    15    14    1
    22    19    17    1
    23   123   124    2
    24    17    14    1
    25    17    18    1
    26    14    13    1
    27    22    23    2
    28    22    21    1
    29     9    10    1
    30    13    11   am
    31    20    21    1
    32    11    10    1
    33    11    12    2
    34    21    24    1
    35    24    25    1
    36    95    94    1
    37    95    98    1
    38    95    96    1
    39    51    50    1
    40    99    98    1
    41    99   100    1
    42    49    48    2
    43    96    97    2
    44    50    47    1
    45    25    26    1
    46    25    27    1
    47    47    48    1
    48    47    46    1
    49    89    90    1
    50    89    92    1
    51    89    88    1
    52    93    92    1
    53    90    91    2
    54    48    52   am
    55   102   100   am
    56   100   101    2
    57    44    45   ar
    58    44    42   ar
    59    45    43   ar
    60    55    54    2
    61    52    53    1
    62    42    40   ar
    63    54    53    1
    64    53    56    1
    65    43    41   ar
    66   108   107    1
    67   108   109    1
    68   107   104    1
    69    40    41   ar
    70    40    39    1
    71   111   110    1
    72   110   109    1
    73   103   104    1
    74    71    70   ar
    75    77    74    1
    76    56    57    1
    77    38    37    2
    78    72    70   ar
    79    37    36    1
    80    70    69    1
    81   104   105    1
    82    74    73    1
    83    74    75    1
    84    39    36    1
    85   106   105    2
    86    69    66    1
    87    66    65    1
    88    66    67    1
    89    36    35    1
    90    76    75    2
    91    75    78   am
    92    67    68    2
    93    35    30   am
    94   136   135    1
    95    78    79    1
    96    34    32    1
    97    33    32    1
    98    31    30    2
    99    30    29    1
   100   133   135   ar
   101   133   131   ar
   102   135   134   ar
   103    85    87   ar
   104    85    83   ar
   105   156   154   ar
   106   156   158   ar
   107    87    86   ar
   108    64    62    1
   109    32    29    1
   110   145   147   ar
   111   145   143   ar
   112   154   153   ar
   113    79    80    1
   114    79    82    1
   115   147   146   ar
   116   131   130   ar
   117   134   132   ar
   118   158   157   ar
   119    29    28    1
   120   172   170   ar
   121   172   171   ar
   122    83    82    1
   123    83    84   ar
   124   143   142   ar
   125    80    81    2
   126    86    84   ar
   127   170   168   ar
   128    63    62    1
   129    62    59    1
   130   153   152    1
   131   153   155   ar
   132   130   132   ar
   133   130   129    1
   134    59    58    1
   135    59    60    1
   136   157   155   ar
   137   146   144   ar
   138   152   149    1
   139   171   169   ar
   140   149   150    1
   141   149   148    1
   142   142   144   ar
   143   142   141    1
   144   129   126    1
   145   150   151    2
   146   168   167   ar
   147   168   166   ar
   148    60    61    1
   149   167   165   ar
   150   141   138    1
   151   128   127    2
   152   169   166   ar
   153   126   127    1
   154   126   125    1
   155   166   164   ar
   156   138   137    1
   157   138   139    1
   158   165   164   ar
   159   139   140    2
   160   164   163    1
   161   163   160    1
   162   162   161    2
   163   161   160    1
   164   160   159    1
