@<TRIPOS>MOLECULE
tmp/1b9sA01.pdb
 177 166 0 0 0
SMALL
GASTEIGER

@<TRIPOS>ATOM
      1  N         42.8060   -8.2730   64.9760 N.3    40  ARG40      -0.1231
      2  CA        41.8730   -9.3930   64.8620 C.3    40  ARG40       0.1694
      3  C         41.3570   -9.4330   63.4260 C.2    40  ARG40       0.2591
      4  O         41.5600   -8.4910   62.6590 O.2    40  ARG40      -0.2718
      5  CB        40.6910   -9.2450   65.8340 C.3    40  ARG40       0.0321
      6  CG        40.8120  -10.0760   67.1160 C.3    40  ARG40       0.0489
      7  CD        40.2510  -11.4810   66.9480 C.3    40  ARG40       0.2205
      8  NE        38.8300  -11.5650   67.2730 N.pl3  40  ARG40      -0.0865
      9  CZ        37.9380  -12.2550   66.5660 C.cat  40  ARG40       0.5346
     10  NH1       38.3090  -12.9310   65.4900 N.pl3  40  ARG40       0.1354
     11  NH2       36.6680  -12.2750   66.9340 N.pl3  40  ARG40       0.1354
     12  N         40.6870  -10.5240   63.0720 N.am   41  GLU41      -0.1979
     13  CA        40.1520  -10.7010   61.7240 C.3    41  GLU41       0.1602
     14  C         41.2540  -10.4890   60.6840 C.2    41  GLU41       0.2287
     15  O         41.1550   -9.6060   59.8260 O.2    41  GLU41      -0.2864
     16  CB        39.0000   -9.7210   61.4520 C.3    41  GLU41       0.0415
     17  CG        37.7420   -9.9600   62.2730 C.3    41  GLU41       0.1163
     18  CD        37.8070   -9.2870   63.6230 C.2    41  GLU41       0.3649
     19  OE1       38.3560   -8.1710   63.7150 O.co2  41  GLU41      -0.2457
     20  OE2       37.3150   -9.8730   64.5990 O.co2  41  GLU41      -0.2457
     21  N         36.2480   -5.7070   71.8800 N.3    72  LYS72      -0.1231
     22  CA        35.1260   -5.2000   71.1040 C.3    72  LYS72       0.1693
     23  C         35.5250   -5.2450   69.6410 C.2    72  LYS72       0.2592
     24  O         36.7080   -5.3200   69.3210 O.2    72  LYS72      -0.2718
     25  CB        34.8080   -3.7570   71.5060 C.3    72  LYS72       0.0285
     26  CG        33.3230   -3.4000   71.4500 C.3    72  LYS72       0.0035
     27  CD        32.8300   -3.2290   70.0090 C.3    72  LYS72       0.0206
     28  CE        31.3660   -3.6540   69.8520 C.3    72  LYS72       0.1093
     29  NZ        31.1930   -4.8230   68.9360 N.3    72  LYS72      -0.1314
     30  N         34.5420   -5.2010   68.7530 N.am   73  ASP73      -0.1960
     31  CA        34.8240   -5.2480   67.3290 C.3    73  ASP73       0.1840
     32  C         34.7230   -3.8860   66.6870 C.2    73  ASP73       0.2621
     33  O         35.5890   -3.4840   65.9110 O.2    73  ASP73      -0.2715
     34  CB        33.8430   -6.1750   66.6150 C.3    73  ASP73       0.1450
     35  CG        33.7840   -7.5440   67.2350 C.2    73  ASP73       0.3671
     36  OD1       34.6400   -7.8490   68.0940 O.co2  73  ASP73      -0.2456
     37  OD2       32.8770   -8.3170   66.8610 O.co2  73  ASP73      -0.2456
     38  N         33.6610   -3.1710   67.0240 N.am   74  ARG74      -0.1977
     39  CA        33.4230   -1.8820   66.4160 C.3    74  ARG74       0.1597
     40  C         33.6930   -0.6630   67.2890 C.2    74  ARG74       0.2287
     41  O         33.2520   -0.5810   68.4410 O.2    74  ARG74      -0.2864
     42  CB        31.9890   -1.8610   65.8760 C.3    74  ARG74       0.0334
     43  CG        31.7450   -2.9280   64.8010 C.3    74  ARG74       0.0492
     44  CD        30.3170   -2.9210   64.2880 C.3    74  ARG74       0.2205
     45  NE        29.3710   -2.8260   65.3890 N.pl3  74  ARG74      -0.0865
     46  CZ        29.0140   -3.8500   66.1540 C.cat  74  ARG74       0.5346
     47  NH1       29.5240   -5.0530   65.9330 N.pl3  74  ARG74       0.1354
     48  NH2       28.1450   -3.6720   67.1390 N.pl3  74  ARG74       0.1354
     49  N         36.1720   -1.1330   60.7850 N.3   101  TRP101     -0.1227
     50  CA        36.0360   -2.2130   61.7480 C.3   101  TRP101      0.1737
     51  C         35.5600   -3.5070   61.0640 C.2   101  TRP101      0.2596
     52  O         35.2060   -4.4970   61.7160 O.2   101  TRP101     -0.2718
     53  CB        35.1230   -1.8280   62.9250 C.3   101  TRP101      0.0564
     54  CG        33.9740   -0.8990   62.6510 C.ar  101  TRP101      0.0003
     55  CD1       33.8780    0.4130   63.0220 C.ar  101  TRP101      0.0946
     56  CD2       32.6980   -1.2500   62.0900 C.ar  101  TRP101      0.0152
     57  NE1       32.6240    0.8980   62.7370 N.ar  101  TRP101     -0.2442
     58  CE2       31.8790   -0.1020   62.1670 C.ar  101  TRP101      0.0810
     59  CE3       32.1670   -2.4250   61.5370 C.ar  101  TRP101      0.0012
     60  CZ2       30.5570   -0.0940   61.7110 C.ar  101  TRP101      0.0191
     61  CZ3       30.8520   -2.4160   61.0820 C.ar  101  TRP101      0.0001
     62  CH2       30.0630   -1.2570   61.1730 C.ar  101  TRP101      0.0015
     63  N         35.5840   -3.4870   59.7340 N.am  102  SER102     -0.1952
     64  CA        35.2170   -4.6380   58.9090 C.3   102  SER102      0.1924
     65  C         35.8620   -4.3850   57.5490 C.2   102  SER102      0.2314
     66  O         35.8240   -3.2600   57.0500 O.2   102  SER102     -0.2863
     67  CB        33.6900   -4.7490   58.7690 C.3   102  SER102      0.2116
     68  OG        33.3150   -5.7370   57.8180 O.3   102  SER102     -0.2180
     69  N         21.5300   -2.4140   59.9050 N.3   144  ASN144     -0.1225
     70  CA        21.9780   -3.1650   61.0630 C.3   144  ASN144      0.1785
     71  C         23.3820   -3.6930   60.8450 C.2   144  ASN144      0.2597
     72  O         23.5770   -4.7690   60.2720 O.2   144  ASN144     -0.2718
     73  CB        21.0460   -4.3260   61.3880 C.3   144  ASN144      0.1169
     74  CG        21.4170   -5.0080   62.6910 C.2   144  ASN144      0.2627
     75  OD1       22.4780   -5.6270   62.8000 O.2   144  ASN144     -0.2716
     76  ND2       20.5520   -4.8900   63.6900 N.am  144  ASN144     -0.0877
     77  N         24.3440   -2.9040   61.3150 N.am  145  ILE145     -0.1980
     78  CA        25.7660   -3.2040   61.2240 C.3   145  ILE145      0.1595
     79  C         26.2020   -3.7560   59.8700 C.2   145  ILE145      0.2287
     80  O         26.4200   -4.9570   59.7050 O.2   145  ILE145     -0.2864
     81  CB        26.2040   -4.1770   62.3430 C.3   145  ILE145      0.0276
     82  CG1       25.7130   -3.6670   63.6970 C.3   145  ILE145      0.0022
     83  CG2       27.7140   -4.2820   62.3710 C.3   145  ILE145      0.0022
     84  CD1       26.0700   -4.5640   64.8740 C.3   145  ILE145      0.0001
     85  N         28.3640   -5.0800   57.3930 N.3   147  ARG147     -0.1245
     86  CA        29.6590   -5.7220   57.5750 C.3   147  ARG147      0.1563
     87  C         30.1080   -6.3280   56.2540 C.2   147  ARG147      0.2260
     88  O         29.3340   -6.3800   55.2940 O.2   147  ARG147     -0.2867
     89  CB        29.5510   -6.8060   58.6530 C.3   147  ARG147      0.0307
     90  CG        28.1420   -7.3910   58.8110 C.3   147  ARG147      0.0489
     91  CD        28.0100   -8.2140   60.0860 C.3   147  ARG147      0.2205
     92  NE        26.9630   -9.2300   59.9830 N.pl3 147  ARG147     -0.0865
     93  CZ        25.6640   -8.9830   60.1110 C.cat 147  ARG147      0.5346
     94  NH1       25.2430   -7.7490   60.3520 N.pl3 147  ARG147      0.1354
     95  NH2       24.7860   -9.9700   60.0010 N.pl3 147  ARG147      0.1354
     96  N         35.5830  -10.0790   55.4790 N.3   150  GLU150     -0.1245
     97  CA        36.5970  -10.3180   56.5100 C.3   150  GLU150      0.1567
     98  C         37.7150  -11.2020   55.9160 C.2   150  GLU150      0.2260
     99  O         38.4640  -11.8790   56.6260 O.2   150  GLU150     -0.2867
    100  CB        35.9680  -10.9880   57.7440 C.3   150  GLU150      0.0388
    101  CG        35.8780  -10.0980   58.9910 C.3   150  GLU150      0.1160
    102  CD        35.6190   -8.6220   58.6700 C.2   150  GLU150      0.3649
    103  OE1       36.4730   -8.0080   57.9960 O.co2 150  GLU150     -0.2457
    104  OE2       34.5700   -8.0760   59.0990 O.co2 150  GLU150     -0.2457
    105  N         22.1230   -6.6450   58.5150 N.3   167  GLY167     -0.1225
    106  CA        21.1520   -7.4900   59.1840 C.3   167  GLY167      0.1811
    107  C         21.4830   -7.8430   60.6160 C.2   167  GLY167      0.2280
    108  O         22.6160   -7.6900   61.0630 O.2   167  GLY167     -0.2866
    109  N         22.1800  -10.0130   64.0240 N.3   169  ALA169     -0.1245
    110  CA        23.0510  -11.1510   64.2900 C.3   169  ALA169      0.1562
    111  C         22.2140  -12.3840   64.6010 C.2   169  ALA169      0.2260
    112  O         22.5640  -13.4980   64.2100 O.2   169  ALA169     -0.2867
    113  CB        23.9730  -10.8440   65.4570 C.3   169  ALA169      0.0290
    114  N         26.9520  -14.3910   55.6550 N.3   199  GLU199     -0.1231
    115  CA        27.8640  -13.3640   56.1380 C.3   199  GLU199      0.1699
    116  C         29.2650  -13.9130   56.3090 C.2   199  GLU199      0.2592
    117  O         29.4600  -15.1290   56.3030 O.2   199  GLU199     -0.2718
    118  CB        27.3610  -12.7920   57.4660 C.3   199  GLU199      0.0402
    119  CG        27.9020  -13.4810   58.6880 C.3   199  GLU199      0.1161
    120  CD        27.3400  -12.9010   59.9590 C.2   199  GLU199      0.3649
    121  OE1       26.0980  -12.8310   60.0660 O.co2 199  GLU199     -0.2457
    122  OE2       28.1340  -12.5170   60.8490 O.co2 199  GLU199     -0.2457
    123  N         30.2320  -13.0100   56.4670 N.am  200  GLU200     -0.1979
    124  CA        31.6220  -13.3920   56.6390 C.3   200  GLU200      0.1602
    125  C         31.9640  -14.4120   55.5680 C.2   200  GLU200      0.2287
    126  O         32.7050  -15.3630   55.8050 O.2   200  GLU200     -0.2864
    127  CB        31.8310  -13.9860   58.0350 C.3   200  GLU200      0.0415
    128  CG        31.6490  -12.9600   59.1550 C.3   200  GLU200      0.1163
    129  CD        32.2370  -13.3920   60.4990 C.2   200  GLU200      0.3649
    130  OE1       32.5230  -14.5980   60.7010 O.co2 200  GLU200     -0.2457
    131  OE2       32.4020  -12.5050   61.3640 O.co2 200  GLU200     -0.2457
    132  N         28.8270  -17.8470   56.5830 N.3   216  ARG216     -0.1245
    133  CA        28.4210  -18.0660   57.9710 C.3   216  ARG216      0.1563
    134  C         26.9970  -17.6300   58.2950 C.2   216  ARG216      0.2260
    135  O         26.5910  -16.5180   57.9500 O.2   216  ARG216     -0.2867
    136  CB        29.3840  -17.3200   58.9070 C.3   216  ARG216      0.0307
    137  CG        29.1330  -17.5270   60.3840 C.3   216  ARG216      0.0489
    138  CD        29.0170  -16.2170   61.1350 C.3   216  ARG216      0.2205
    139  NE        30.2420  -15.8430   61.8420 N.pl3 216  ARG216     -0.0865
    140  CZ        30.2710  -15.3760   63.0900 C.cat 216  ARG216      0.5346
    141  NH1       29.1490  -15.2370   63.7710 N.pl3 216  ARG216      0.1354
    142  NH2       31.4200  -15.0520   63.6670 N.pl3 216  ARG216      0.1354
    143  N         24.7660  -17.1210   61.5130 N.3   218  ASN218     -0.1240
    144  CA        24.8030  -16.9620   62.9530 C.3   218  ASN218      0.1653
    145  C         23.5310  -17.2890   63.7290 C.2   218  ASN218      0.2266
    146  O         23.5640  -17.3890   64.9470 O.2   218  ASN218     -0.2867
    147  CB        25.2240  -15.5220   63.2520 C.3   218  ASN218      0.1155
    148  CG        25.7440  -15.3420   64.6540 C.2   218  ASN218      0.2627
    149  OD1       26.9520  -15.3330   64.8780 O.2   218  ASN218     -0.2716
    150  ND2       24.8350  -15.1860   65.6120 N.am  218  ASN218     -0.0877
    151  N         28.2240  -18.6640   65.0970 N.3   271  GLY271     -0.1225
    152  CA        28.8830  -19.1650   63.9130 C.3   271  GLY271      0.1811
    153  C         30.3120  -18.6860   63.9520 C.2   271  GLY271      0.2280
    154  O         30.7950  -18.2580   64.9980 O.2   271  GLY271     -0.2866
    155  N         35.9600  -22.4500   70.0470 N.3   298  ARG298     -0.1245
    156  CA        36.8930  -22.1350   68.9640 C.3   298  ARG298      0.1563
    157  C         38.3330  -22.5520   69.2730 C.2   298  ARG298      0.2260
    158  O         39.2270  -21.7160   69.4310 O.2   298  ARG298     -0.2867
    159  CB        36.8260  -20.6460   68.6470 C.3   298  ARG298      0.0307
    160  CG        35.4170  -20.1840   68.3810 C.3   298  ARG298      0.0489
    161  CD        35.3730  -19.1340   67.3110 C.3   298  ARG298      0.2205
    162  NE        35.1930  -17.8100   67.8840 N.pl3 298  ARG298     -0.0865
    163  CZ        34.5670  -16.8140   67.2710 C.cat 298  ARG298      0.5346
    164  NH1       34.0580  -17.0010   66.0590 N.pl3 298  ARG298      0.1354
    165  NH2       34.4510  -15.6350   67.8720 N.pl3 298  ARG298      0.1354
    166  N         38.9090  -17.5310   63.2930 N.3   333  TYR333     -0.1241
    167  CA        38.6450  -17.3410   61.8750 C.3   333  TYR333      0.1605
    168  C         39.6030  -18.0850   60.9590 C.2   333  TYR333      0.2264
    169  O         40.7960  -18.1830   61.2240 O.2   333  TYR333     -0.2867
    170  CB        38.6270  -15.8460   61.5350 C.3   333  TYR333      0.0534
    171  CG        37.3540  -15.1610   61.9890 C.ar  333  TYR333     -0.0201
    172  CD1       36.6680  -15.6090   63.1210 C.ar  333  TYR333     -0.0009
    173  CD2       36.8250  -14.0810   61.2840 C.ar  333  TYR333     -0.0009
    174  CE1       35.4940  -15.0100   63.5390 C.ar  333  TYR333      0.0417
    175  CE2       35.6440  -13.4710   61.6960 C.ar  333  TYR333      0.0417
    176  CZ        34.9850  -13.9470   62.8240 C.ar  333  TYR333      0.1957
    177  OH        33.8000  -13.3860   63.2220 O.3   333  TYR333     -0.2866
@<TRIPOS>BOND
     1    88    87    2
     2    96    97    1
     3   125   126    2
     4   125   124    1
     5   114   115    1
     6    98    97    1
     7    98    99    2
     8   115   116    1
     9   115   118    1
    10    87    86    1
    11   117   116    2
    12   116   123   am
    13   123   124    1
    14    97   100    1
    15   132   133    1
    16   124   127    1
    17    66    65    2
    18    85    86    1
    19   118   119    1
    20    65    64    1
    21    86    89    1
    22   100   101    1
    23    68    67    1
    24   135   134    2
    25   133   134    1
    26   133   136    1
    27   103   102   ar
    28   127   128    1
    29   105   106    1
    30    89    90    1
    31   102   101    1
    32   102   104   ar
    33   119   120    1
    34    67    64    1
    35    90    91    1
    36   136   137    1
    37    64    63    1
    38   128   129    1
    39   106   107    1
    40    80    79    2
    41    63    51   am
    42    15    14    2
    43    79    78    1
    44    69    70    1
    45   120   121   ar
    46   120   122   ar
    47    92    91    1
    48    92    93    2
    49    95    93    1
    50    93    94    1
    51    72    71    2
    52   137   138    1
    53   129   130   ar
    54   129   131   ar
    55   107   108    2
    56    14    13    1
    57    49    50    1
    58    71    70    1
    59    71    77   am
    60   168   169    2
    61   168   167    1
    62    70    73    1
    63    51    52    2
    64    51    50    1
    65    61    62   ar
    66    61    59   ar
    67   138   139    1
    68    62    60   ar
    69    78    77    1
    70    78    81    1
    71   173   175   ar
    72   173   171   ar
    73    73    74    1
    74    16    13    1
    75    16    17    1
    76   143   144    1
    77   170   167    1
    78   170   171    1
    79    59    56   ar
    80   175   176   ar
    81    60    58   ar
    82    13    12    1
    83    50    53    1
    84   139   140    2
    85   167   166    1
    86   171   172   ar
    87    56    58   ar
    88    56    54   ar
    89    58    57   ar
    90    17    18    1
    91    81    83    1
    92    81    82    1
    93    54    53    1
    94    54    55   ar
    95     4     3    2
    96    74    75    2
    97    74    76   am
    98    57    55   ar
    99   176   177    1
   100   176   174   ar
   101   144   147    1
   102   144   145    1
   103    12     3   am
   104   140   142    1
   105   140   141    1
   106   172   174   ar
   107   147   148    1
   108     3     2    1
   109    18    19   ar
   110    18    20   ar
   111    82    84    1
   112   145   146    2
   113   152   153    1
   114   152   151    1
   115   153   154    2
   116   109   110    1
   117   112   111    2
   118    44    43    1
   119    44    45    1
   120   110   111    1
   121   110   113    1
   122   148   149    2
   123   148   150   am
   124    43    42    1
   125     2     1    1
   126     2     5    1
   127    45    46    2
   128    10     9    1
   129     5     6    1
   130    42    39    1
   131    33    32    2
   132    47    46    1
   133   164   163    1
   134    46    48    1
   135    39    38    1
   136    39    40    1
   137     9    11    1
   138     9     8    2
   139    34    35    1
   140    34    31    1
   141    32    38   am
   142    32    31    1
   143    37    35   ar
   144     7     6    1
   145     7     8    1
   146    35    36   ar
   147   163   165    1
   148   163   162    2
   149    40    41    2
   150   161   162    1
   151   161   160    1
   152    31    30    1
   153   160   159    1
   154   159   156    1
   155    30    23   am
   156    29    28    1
   157   156   157    1
   158   156   155    1
   159   157   158    2
   160    24    23    2
   161    23    22    1
   162    28    27    1
   163    27    26    1
   164    22    25    1
   165    22    21    1
   166    26    25    1
