@<TRIPOS>MOLECULE
tmp/1b9tA01.pdb
 192 183 0 0 0
SMALL
GASTEIGER

@<TRIPOS>ATOM
      1  N         42.9280   -8.3620   64.8560 N.3    40  ARG40      -0.1231
      2  CA        41.9490   -9.4310   64.7380 C.3    40  ARG40       0.1694
      3  C         41.4490   -9.4650   63.2970 C.2    40  ARG40       0.2591
      4  O         41.6420   -8.5150   62.5460 O.2    40  ARG40      -0.2718
      5  CB        40.7800   -9.2220   65.7060 C.3    40  ARG40       0.0321
      6  CG        40.8340  -10.1330   66.9350 C.3    40  ARG40       0.0489
      7  CD        40.1130  -11.4400   66.7090 C.3    40  ARG40       0.2205
      8  NE        38.7820  -11.4380   67.3110 N.pl3  40  ARG40      -0.0865
      9  CZ        37.7750  -12.2120   66.9130 C.cat  40  ARG40       0.5346
     10  NH1       37.9290  -13.0630   65.9040 N.pl3  40  ARG40       0.1354
     11  NH2       36.6070  -12.1290   67.5230 N.pl3  40  ARG40       0.1354
     12  N         40.8100  -10.5680   62.9300 N.am   41  GLU41      -0.1979
     13  CA        40.2940  -10.7880   61.5830 C.3    41  GLU41       0.1602
     14  C         41.3840  -10.6250   60.5420 C.2    41  GLU41       0.2287
     15  O         41.2500   -9.8350   59.6110 O.2    41  GLU41      -0.2864
     16  CB        39.1380   -9.8430   61.2560 C.3    41  GLU41       0.0415
     17  CG        37.9060  -10.0630   62.0950 C.3    41  GLU41       0.1163
     18  CD        37.8760   -9.1600   63.3110 C.2    41  GLU41       0.3649
     19  OE1       38.6060   -8.1480   63.3130 O.co2  41  GLU41      -0.2457
     20  OE2       37.1290   -9.4590   64.2650 O.co2  41  GLU41      -0.2457
     21  N         42.8410   -6.0740   61.0240 N.3    56  LEU56      -0.1245
     22  CA        42.1010   -4.9550   61.6160 C.3    56  LEU56       0.1561
     23  C         42.6950   -4.6480   62.9840 C.2    56  LEU56       0.2260
     24  O         42.4920   -5.4130   63.9280 O.2    56  LEU56      -0.2867
     25  CB        40.6200   -5.3280   61.7770 C.3    56  LEU56       0.0270
     26  CG        39.5800   -4.6950   60.8460 C.3    56  LEU56       0.0019
     27  CD1       40.0170   -4.7920   59.3890 C.3    56  LEU56       0.0001
     28  CD2       38.2630   -5.4180   61.0340 C.3    56  LEU56       0.0001
     29  N         34.5340   -5.2240   69.0620 N.3    73  ASP73      -0.1225
     30  CA        34.7620   -5.2480   67.6170 C.3    73  ASP73       0.1805
     31  C         34.6950   -3.9220   66.8880 C.2    73  ASP73       0.2597
     32  O         35.6540   -3.5170   66.2420 O.2    73  ASP73      -0.2718
     33  CB        33.7910   -6.2180   66.9510 C.3    73  ASP73       0.1424
     34  CG        33.6380   -7.5190   67.7270 C.2    73  ASP73       0.3668
     35  OD1       34.6550   -8.2110   67.9350 O.co2  73  ASP73      -0.2456
     36  OD2       32.4980   -7.8500   68.1300 O.co2  73  ASP73      -0.2456
     37  N         33.5610   -3.2460   66.9800 N.am   74  ARG74      -0.1979
     38  CA        33.3900   -1.9780   66.2890 C.3    74  ARG74       0.1597
     39  C         33.7010   -0.7690   67.1600 C.2    74  ARG74       0.2287
     40  O         33.3330   -0.7220   68.3320 O.2    74  ARG74      -0.2864
     41  CB        31.9620   -1.8780   65.7600 C.3    74  ARG74       0.0334
     42  CG        31.5690   -3.0190   64.8330 C.3    74  ARG74       0.0492
     43  CD        30.1370   -2.8720   64.3700 C.3    74  ARG74       0.2205
     44  NE        29.1990   -2.8310   65.4870 N.pl3  74  ARG74      -0.0865
     45  CZ        28.9890   -3.8380   66.3300 C.cat  74  ARG74       0.5346
     46  NH1       29.6470   -4.9810   66.1950 N.pl3  74  ARG74       0.1354
     47  NH2       28.1100   -3.7010   67.3090 N.pl3  74  ARG74       0.1354
     48  N         39.4200    1.5960   65.1980 N.3    78  ARG78      -0.1245
     49  CA        39.7880    0.4740   64.3400 C.3    78  ARG78       0.1563
     50  C         40.2010    0.8960   62.9390 C.2    78  ARG78       0.2260
     51  O         39.5340    1.7010   62.2900 O.2    78  ARG78      -0.2867
     52  CB        38.6400   -0.5410   64.2610 C.3    78  ARG78       0.0307
     53  CG        38.5790   -1.4720   65.4580 C.3    78  ARG78       0.0489
     54  CD        38.2010   -2.8770   65.0500 C.3    78  ARG78       0.2205
     55  NE        39.3470   -3.7800   65.0220 N.pl3  78  ARG78      -0.0865
     56  CZ        39.2390   -5.1010   65.0110 C.cat  78  ARG78       0.5346
     57  NH1       38.0390   -5.6560   65.0280 N.pl3  78  ARG78       0.1354
     58  NH2       40.3210   -5.8670   64.9830 N.pl3  78  ARG78       0.1354
     59  N         36.0580   -1.1320   60.6900 N.3   101  TRP101     -0.1227
     60  CA        35.9200   -2.2170   61.6600 C.3   101  TRP101      0.1737
     61  C         35.5020   -3.5200   60.9730 C.2   101  TRP101      0.2596
     62  O         35.1550   -4.5030   61.6310 O.2   101  TRP101     -0.2718
     63  CB        34.9280   -1.8720   62.7810 C.3   101  TRP101      0.0564
     64  CG        33.7760   -0.9940   62.4170 C.ar  101  TRP101      0.0003
     65  CD1       33.6900    0.3570   62.5960 C.ar  101  TRP101      0.0946
     66  CD2       32.5140   -1.4100   61.8820 C.ar  101  TRP101      0.0152
     67  NE1       32.4560    0.8080   62.2080 N.ar  101  TRP101     -0.2442
     68  CE2       31.7130   -0.2550   61.7650 C.ar  101  TRP101      0.0810
     69  CE3       31.9830   -2.6460   61.4910 C.ar  101  TRP101      0.0012
     70  CZ2       30.4060   -0.2980   61.2730 C.ar  101  TRP101      0.0191
     71  CZ3       30.6890   -2.6920   61.0030 C.ar  101  TRP101      0.0001
     72  CH2       29.9120   -1.5230   60.8980 C.ar  101  TRP101      0.0015
     73  N         35.5440   -3.5040   59.6400 N.am  102  SER102     -0.1952
     74  CA        35.2230   -4.6520   58.7910 C.3   102  SER102      0.1924
     75  C         35.9230   -4.3780   57.4700 C.2   102  SER102      0.2314
     76  O         35.8980   -3.2500   56.9890 O.2   102  SER102     -0.2863
     77  CB        33.7120   -4.7700   58.5620 C.3   102  SER102      0.2116
     78  OG        33.4270   -5.5730   57.4220 O.3   102  SER102     -0.2180
     79  N         24.5390   -2.7060   61.1070 N.3   145  ILE145     -0.1245
     80  CA        25.9180   -3.1430   60.9530 C.3   145  ILE145      0.1561
     81  C         26.2300   -3.6540   59.5640 C.2   145  ILE145      0.2260
     82  O         26.2910   -4.8600   59.3250 O.2   145  ILE145     -0.2867
     83  CB        26.2990   -4.2370   61.9840 C.3   145  ILE145      0.0252
     84  CG1       26.1900   -3.6800   63.3980 C.3   145  ILE145      0.0019
     85  CG2       27.7250   -4.6690   61.7900 C.3   145  ILE145      0.0019
     86  CD1       25.6950   -4.6760   64.3890 C.3   145  ILE145      0.0001
     87  N         28.4300   -4.8600   56.9670 N.3   147  ARG147     -0.1231
     88  CA        29.7480   -5.4450   57.1400 C.3   147  ARG147      0.1694
     89  C         30.1740   -6.2100   55.9000 C.2   147  ARG147      0.2592
     90  O         29.3780   -6.4040   54.9870 O.2   147  ARG147     -0.2718
     91  CB        29.7480   -6.3660   58.3680 C.3   147  ARG147      0.0321
     92  CG        28.6420   -7.4080   58.3800 C.3   147  ARG147      0.0489
     93  CD        28.1400   -7.6550   59.7870 C.3   147  ARG147      0.2205
     94  NE        27.3230   -8.8660   59.9050 N.pl3 147  ARG147     -0.0865
     95  CZ        25.9950   -8.8700   60.0360 C.cat 147  ARG147      0.5346
     96  NH1       25.3200   -7.7310   60.0620 N.pl3 147  ARG147      0.1354
     97  NH2       25.3360  -10.0130   60.1670 N.pl3 147  ARG147      0.1354
     98  N         31.4330   -6.6400   55.8620 N.am  148  THR148     -0.1953
     99  CA        31.9150   -7.3790   54.7060 C.3   148  THR148      0.1897
    100  C         32.6290   -8.6970   55.0660 C.2   148  THR148      0.2313
    101  O         32.5490   -9.1550   56.2110 O.2   148  THR148     -0.2863
    102  CB        32.7810   -6.4520   53.7970 C.3   148  THR148      0.1794
    103  OG1       33.0730   -7.1210   52.5650 O.3   148  THR148     -0.2208
    104  CG2       34.0620   -6.0400   54.4910 C.3   148  THR148      0.0378
    105  N         36.0780  -10.0980   55.3810 N.3   150  GLU150     -0.1245
    106  CA        37.1750  -10.3670   56.3190 C.3   150  GLU150      0.1567
    107  C         38.1190  -11.3640   55.6420 C.2   150  GLU150      0.2260
    108  O         38.8170  -12.1430   56.2950 O.2   150  GLU150     -0.2867
    109  CB        36.6720  -10.9620   57.6380 C.3   150  GLU150      0.0388
    110  CG        35.6210  -10.1540   58.3530 C.3   150  GLU150      0.1160
    111  CD        35.6840   -8.6760   58.0280 C.2   150  GLU150      0.3649
    112  OE1       36.7980   -8.1410   57.8000 O.co2 150  GLU150     -0.2457
    113  OE2       34.6060   -8.0440   58.0170 O.co2 150  GLU150     -0.2457
    114  N         22.5320  -10.1440   63.7420 N.3   169  ALA169     -0.1245
    115  CA        23.3860  -11.3270   63.8100 C.3   169  ALA169      0.1562
    116  C         22.5680  -12.5150   64.2780 C.2   169  ALA169      0.2260
    117  O         22.9140  -13.6610   64.0110 O.2   169  ALA169     -0.2867
    118  CB        24.5490  -11.0880   64.7570 C.3   169  ALA169      0.0290
    119  N         26.5800  -14.1190   55.9740 N.3   199  GLU199     -0.1231
    120  CA        27.6250  -13.1350   56.2360 C.3   199  GLU199      0.1699
    121  C         29.0130  -13.7480   56.0990 C.2   199  GLU199      0.2592
    122  O         29.1480  -14.9200   55.7380 O.2   199  GLU199     -0.2718
    123  CB        27.4480  -12.5450   57.6390 C.3   199  GLU199      0.0402
    124  CG        27.5710  -13.5590   58.7690 C.3   199  GLU199      0.1161
    125  CD        27.6150  -12.9140   60.1460 C.2   199  GLU199      0.3649
    126  OE1       27.3700  -11.6920   60.2500 O.co2 199  GLU199     -0.2457
    127  OE2       27.8960  -13.6330   61.1330 O.co2 199  GLU199     -0.2457
    128  N         30.0320  -12.9330   56.3790 N.am  200  GLU200     -0.1979
    129  CA        31.4480  -13.3190   56.3270 C.3   200  GLU200      0.1602
    130  C         31.7780  -14.4270   55.3350 C.2   200  GLU200      0.2287
    131  O         32.2710  -15.4880   55.7180 O.2   200  GLU200     -0.2864
    132  CB        31.9310  -13.7470   57.7150 C.3   200  GLU200      0.0415
    133  CG        31.2520  -13.0440   58.8800 C.3   200  GLU200      0.1163
    134  CD        32.1320  -13.0040   60.1060 C.2   200  GLU200      0.3649
    135  OE1       32.4470  -14.0820   60.6550 O.co2 200  GLU200     -0.2457
    136  OE2       32.5140  -11.8900   60.5190 O.co2 200  GLU200     -0.2457
    137  N         28.7770  -17.7580   56.6350 N.3   216  ARG216     -0.1245
    138  CA        28.3910  -17.9580   58.0210 C.3   216  ARG216      0.1563
    139  C         26.9550  -17.5620   58.3200 C.2   216  ARG216      0.2260
    140  O         26.5210  -16.4800   57.9320 O.2   216  ARG216     -0.2867
    141  CB        29.3120  -17.1390   58.9200 C.3   216  ARG216      0.0307
    142  CG        29.3490  -17.6120   60.3550 C.3   216  ARG216      0.0489
    143  CD        29.0650  -16.4680   61.3040 C.3   216  ARG216      0.2205
    144  NE        30.2960  -15.8230   61.7450 N.pl3 216  ARG216     -0.0865
    145  CZ        30.5200  -15.3950   62.9860 C.cat 216  ARG216      0.5346
    146  NH1       29.5940  -15.5380   63.9280 N.pl3 216  ARG216      0.1354
    147  NH2       31.6790  -14.8200   63.2850 N.pl3 216  ARG216      0.1354
    148  N         24.7300  -16.8900   61.4470 N.3   218  ASN218     -0.1240
    149  CA        24.8250  -16.6410   62.8790 C.3   218  ASN218      0.1653
    150  C         23.5800  -16.9680   63.7070 C.2   218  ASN218      0.2266
    151  O         23.6500  -16.9800   64.9340 O.2   218  ASN218     -0.2867
    152  CB        25.2290  -15.1680   63.0850 C.3   218  ASN218      0.1155
    153  CG        26.0180  -14.9440   64.3540 C.2   218  ASN218      0.2627
    154  OD1       27.0040  -15.6280   64.6140 O.2   218  ASN218     -0.2716
    155  ND2       25.5910  -13.9750   65.1520 N.am  218  ASN218     -0.0877
    156  N         36.0220  -22.5520   69.9320 N.3   298  ARG298     -0.1245
    157  CA        36.9930  -22.2090   68.8990 C.3   298  ARG298      0.1563
    158  C         38.3740  -22.7210   69.2540 C.2   298  ARG298      0.2260
    159  O         39.2980  -21.9420   69.4610 O.2   298  ARG298     -0.2867
    160  CB        37.0630  -20.6940   68.6950 C.3   298  ARG298      0.0307
    161  CG        35.7890  -19.9620   69.0260 C.3   298  ARG298      0.0489
    162  CD        35.2310  -19.2670   67.8010 C.3   298  ARG298      0.2205
    163  NE        35.4250  -17.8220   67.8690 N.pl3 298  ARG298     -0.0865
    164  CZ        34.5640  -16.9290   67.3920 C.cat 298  ARG298      0.5346
    165  NH1       33.4410  -17.3270   66.8090 N.pl3 298  ARG298      0.1354
    166  NH2       34.8300  -15.6350   67.4900 N.pl3 298  ARG298      0.1354
    167  N         40.4590  -20.0290   65.5740 N.3   332  TRP332     -0.1227
    168  CA        39.3530  -19.1050   65.3610 C.3   332  TRP332      0.1737
    169  C         38.9540  -18.9160   63.9100 C.2   332  TRP332      0.2595
    170  O         38.6000  -19.8760   63.2270 O.2   332  TRP332     -0.2718
    171  CB        39.6890  -17.7480   65.9870 C.3   332  TRP332      0.0564
    172  CG        39.6030  -17.7440   67.4750 C.ar  332  TRP332      0.0003
    173  CD1       40.1980  -18.6230   68.3410 C.ar  332  TRP332      0.0946
    174  CD2       38.8780  -16.8120   68.2850 C.ar  332  TRP332      0.0152
    175  NE1       39.8840  -18.2930   69.6410 N.ar  332  TRP332     -0.2442
    176  CE2       39.0760  -17.1860   69.6340 C.ar  332  TRP332      0.0810
    177  CE3       38.0790  -15.6990   68.0010 C.ar  332  TRP332      0.0012
    178  CZ2       38.5040  -16.4870   70.6930 C.ar  332  TRP332      0.0191
    179  CZ3       37.5120  -15.0010   69.0500 C.ar  332  TRP332      0.0001
    180  CH2       37.7280  -15.3970   70.3850 C.ar  332  TRP332      0.0015
    181  N         38.9840  -17.6770   63.4370 N.am  333  TYR333     -0.1976
    182  CA        38.6040  -17.4250   62.0540 C.3   333  TYR333      0.1639
    183  C         39.6260  -18.1370   61.1840 C.2   333  TYR333      0.2290
    184  O         40.7380  -18.4060   61.6310 O.2   333  TYR333     -0.2864
    185  CB        38.6050  -15.9180   61.7480 C.3   333  TYR333      0.0560
    186  CG        37.3270  -15.1680   62.1270 C.ar  333  TYR333     -0.0198
    187  CD1       36.4590  -15.6600   63.1060 C.ar  333  TYR333     -0.0009
    188  CD2       36.9990  -13.9590   61.5110 C.ar  333  TYR333     -0.0009
    189  CE1       35.2990  -14.9670   63.4610 C.ar  333  TYR333      0.0417
    190  CE2       35.8410  -13.2580   61.8590 C.ar  333  TYR333      0.0417
    191  CZ        34.9940  -13.7700   62.8320 C.ar  333  TYR333      0.1957
    192  OH        33.8270  -13.1080   63.1440 O.3   333  TYR333     -0.2866
@<TRIPOS>BOND
     1   103   102    1
     2   102   104    1
     3   102    99    1
     4    99   100    1
     5    99    98    1
     6    90    89    2
     7   100   101    2
     8   130   131    2
     9   130   129    1
    10   105   106    1
    11   107   108    2
    12   107   106    1
    13   122   121    2
    14    98    89   am
    15    89    88    1
    16   119   120    1
    17   121   120    1
    18   121   128   am
    19   120   123    1
    20   106   109    1
    21   129   128    1
    22   129   132    1
    23   137   138    1
    24    87    88    1
    25    76    75    2
    26    88    91    1
    27    78    77    1
    28    75    74    1
    29   109   110    1
    30   123   124    1
    31   132   133    1
    32   112   111   ar
    33   140   139    2
    34   113   111   ar
    35   138   139    1
    36   138   141    1
    37   111   110    1
    38    91    92    1
    39    92    93    1
    40    77    74    1
    41   124   125    1
    42    74    73    1
    43   133   134    1
    44   141   142    1
    45    82    81    2
    46    27    26    1
    47    81    80    1
    48    15    14    2
    49    73    61   am
    50    93    94    1
    51    94    95    2
    52    95    96    1
    53    95    97    1
    54   134   136   ar
    55   134   135   ar
    56   125   126   ar
    57   125   127   ar
    58   142   143    1
    59    14    13    1
    60    59    60    1
    61    26    28    1
    62    26    25    1
    63    72    71   ar
    64    72    70   ar
    65    80    79    1
    66    80    83    1
    67    61    62    2
    68    61    60    1
    69    71    69   ar
    70    21    22    1
    71   183   184    2
    72   183   182    1
    73    16    13    1
    74    16    17    1
    75    70    68   ar
    76   143   144    1
    77   148   149    1
    78    69    66   ar
    79   188   190   ar
    80   188   186   ar
    81    13    12    1
    82    22    25    1
    83    22    23    1
    84    60    63    1
    85   144   145    2
    86   185   182    1
    87   185   186    1
    88    68    66   ar
    89    68    67   ar
    90    85    83    1
    91   190   191   ar
    92    66    64   ar
    93    83    84    1
    94   182   181    1
    95    17    18    1
    96   186   187   ar
    97    67    65   ar
    98    51    50    2
    99    64    65   ar
   100    64    63    1
   101     4     3    2
   102   191   192    1
   103   191   189   ar
   104   149   152    1
   105   149   150    1
   106    12     3   am
   107    50    49    1
   108    23    24    2
   109   145   147    1
   110   145   146    1
   111   152   153    1
   112   187   189   ar
   113   170   169    2
   114     3     2    1
   115    18    19   ar
   116    18    20   ar
   117    84    86    1
   118   181   169   am
   119   150   151    2
   120   114   115    1
   121   115   116    1
   122   115   118    1
   123   169   168    1
   124   117   116    2
   125    52    49    1
   126    52    53    1
   127    49    48    1
   128   153   154    2
   129   153   155   am
   130    43    42    1
   131    43    44    1
   132     2     1    1
   133     2     5    1
   134    42    41    1
   135    58    56    1
   136    56    55    2
   137    56    57    1
   138    55    54    1
   139    54    53    1
   140   168   167    1
   141   168   171    1
   142    44    45    2
   143     5     6    1
   144    41    38    1
   145    10     9    1
   146   171   172    1
   147    46    45    1
   148    32    31    2
   149    38    37    1
   150    38    39    1
   151    45    47    1
   152     7     6    1
   153     7     8    1
   154   165   164    1
   155    31    37   am
   156    31    30    1
   157     9     8    2
   158     9    11    1
   159    33    30    1
   160    33    34    1
   161    39    40    2
   162   164   166    1
   163   164   163    2
   164   172   174   ar
   165   172   173   ar
   166    30    29    1
   167    34    35   ar
   168    34    36   ar
   169   162   163    1
   170   162   161    1
   171   177   174   ar
   172   177   179   ar
   173   174   176   ar
   174   173   175   ar
   175   160   157    1
   176   160   161    1
   177   157   158    1
   178   157   156    1
   179   179   180   ar
   180   158   159    2
   181   176   175   ar
   182   176   178   ar
   183   180   178   ar
