@<TRIPOS>MOLECULE
tmp/1b9vA01.pdb
 192 183 0 0 0
SMALL
GASTEIGER

@<TRIPOS>ATOM
      1  N         42.9570   -8.1190   65.0100 N.3    40  ARG40      -0.1231
      2  CA        41.9790   -9.2020   64.8980 C.3    40  ARG40       0.1694
      3  C         41.4660   -9.2380   63.4680 C.2    40  ARG40       0.2591
      4  O         41.6840   -8.2970   62.7090 O.2    40  ARG40      -0.2718
      5  CB        40.8120   -9.0060   65.8650 C.3    40  ARG40       0.0321
      6  CG        40.8040  -10.0020   67.0250 C.3    40  ARG40       0.0489
      7  CD        40.0990  -11.2940   66.6540 C.3    40  ARG40       0.2205
      8  NE        38.8580  -11.4750   67.3960 N.pl3  40  ARG40      -0.0865
      9  CZ        37.8180  -12.1760   66.9510 C.cat  40  ARG40       0.5346
     10  NH1       37.8630  -12.7690   65.7630 N.pl3  40  ARG40       0.1354
     11  NH2       36.7240  -12.2720   67.6880 N.pl3  40  ARG40       0.1354
     12  N         40.7990  -10.3270   63.1040 N.am   41  GLU41      -0.1979
     13  CA        40.2600  -10.4870   61.7610 C.3    41  GLU41       0.1602
     14  C         41.3450  -10.2960   60.7030 C.2    41  GLU41       0.2287
     15  O         41.2260   -9.4480   59.8280 O.2    41  GLU41      -0.2864
     16  CB        39.1190   -9.4850   61.5280 C.3    41  GLU41       0.0415
     17  CG        37.8760   -9.7540   62.3610 C.3    41  GLU41       0.1163
     18  CD        37.9470   -9.1530   63.7600 C.2    41  GLU41       0.3649
     19  OE1       38.4720   -8.0380   63.9180 O.co2  41  GLU41      -0.2457
     20  OE2       37.4710   -9.7950   64.7110 O.co2  41  GLU41      -0.2457
     21  N         42.6920   -5.8670   61.3480 N.3    56  LEU56      -0.1245
     22  CA        41.9900   -4.7120   61.9020 C.3    56  LEU56       0.1561
     23  C         42.6100   -4.4000   63.2550 C.2    56  LEU56       0.2260
     24  O         42.2680   -5.0330   64.2500 O.2    56  LEU56      -0.2867
     25  CB        40.5090   -5.0470   62.1110 C.3    56  LEU56       0.0270
     26  CG        39.4220   -4.5570   61.1470 C.3    56  LEU56       0.0019
     27  CD1       39.8880   -4.5910   59.6830 C.3    56  LEU56       0.0001
     28  CD2       38.2000   -5.4460   61.3450 C.3    56  LEU56       0.0001
     29  N         34.5490   -4.9950   69.1540 N.3    73  ASP73      -0.1225
     30  CA        34.8290   -5.1410   67.7300 C.3    73  ASP73       0.1805
     31  C         34.6310   -3.8810   66.9020 C.2    73  ASP73       0.2597
     32  O         35.0470   -3.8230   65.7450 O.2    73  ASP73      -0.2718
     33  CB        33.9650   -6.2530   67.1270 C.3    73  ASP73       0.1424
     34  CG        33.8720   -7.4790   68.0220 C.2    73  ASP73       0.3668
     35  OD1       34.9260   -7.9870   68.4650 O.co2  73  ASP73      -0.2456
     36  OD2       32.7390   -7.9400   68.2820 O.co2  73  ASP73      -0.2456
     37  N         34.0050   -2.8670   67.4780 N.am   74  ARG74      -0.1979
     38  CA        33.7540   -1.6580   66.7160 C.3    74  ARG74       0.1597
     39  C         33.9750   -0.3870   67.5180 C.2    74  ARG74       0.2287
     40  O         33.5960   -0.3010   68.6890 O.2    74  ARG74      -0.2864
     41  CB        32.3250   -1.6910   66.1620 C.3    74  ARG74       0.0334
     42  CG        32.0470   -2.8500   65.1920 C.3    74  ARG74       0.0492
     43  CD        30.6620   -2.7280   64.5380 C.3    74  ARG74       0.2205
     44  NE        29.6010   -2.5740   65.5290 N.pl3  74  ARG74      -0.0865
     45  CZ        29.1320   -3.5610   66.2870 C.cat  74  ARG74       0.5346
     46  NH1       29.6250   -4.7860   66.1740 N.pl3  74  ARG74       0.1354
     47  NH2       28.1800   -3.3230   67.1730 N.pl3  74  ARG74       0.1354
     48  N         39.6440    1.6910   65.3830 N.3    78  ARG78      -0.1245
     49  CA        40.0370    0.5510   64.5630 C.3    78  ARG78       0.1563
     50  C         40.4280    0.9670   63.1540 C.2    78  ARG78       0.2260
     51  O         39.7740    1.8090   62.5410 O.2    78  ARG78      -0.2867
     52  CB        38.9030   -0.4780   64.5040 C.3    78  ARG78       0.0307
     53  CG        38.7770   -1.3300   65.7580 C.3    78  ARG78       0.0489
     54  CD        38.2330   -2.7120   65.4350 C.3    78  ARG78       0.2205
     55  NE        39.2800   -3.7310   65.3980 N.pl3  78  ARG78      -0.0865
     56  CZ        39.0460   -5.0280   65.2300 C.cat  78  ARG78       0.5346
     57  NH1       37.8030   -5.4550   65.0860 N.pl3  78  ARG78       0.1354
     58  NH2       40.0480   -5.8960   65.2060 N.pl3  78  ARG78       0.1354
     59  N         36.1890   -0.9700   60.9920 N.3   101  TRP101     -0.1227
     60  CA        36.0210   -2.0080   61.9980 C.3   101  TRP101      0.1737
     61  C         35.5500   -3.2850   61.3140 C.2   101  TRP101      0.2596
     62  O         35.0630   -4.2100   61.9670 O.2   101  TRP101     -0.2718
     63  CB        35.0280   -1.5900   63.0980 C.3   101  TRP101      0.0564
     64  CG        33.8770   -0.7080   62.6790 C.ar  101  TRP101      0.0003
     65  CD1       33.7550    0.6400   62.8920 C.ar  101  TRP101      0.0946
     66  CD2       32.6400   -1.1300   62.0930 C.ar  101  TRP101      0.0152
     67  NE1       32.5220    1.0770   62.4840 N.ar  101  TRP101     -0.2442
     68  CE2       31.8150    0.0130   61.9890 C.ar  101  TRP101      0.0810
     69  CE3       32.1450   -2.3640   61.6480 C.ar  101  TRP101      0.0012
     70  CZ2       30.5200   -0.0420   61.4580 C.ar  101  TRP101      0.0191
     71  CZ3       30.8590   -2.4180   61.1220 C.ar  101  TRP101      0.0001
     72  CH2       30.0630   -1.2630   61.0320 C.ar  101  TRP101      0.0015
     73  N         35.7040   -3.3110   59.9910 N.am  102  SER102     -0.1952
     74  CA        35.3410   -4.4540   59.1520 C.3   102  SER102      0.1924
     75  C         35.9480   -4.2300   57.7780 C.2   102  SER102      0.2314
     76  O         35.7670   -3.1620   57.1940 O.2   102  SER102     -0.2863
     77  CB        33.8260   -4.5750   59.0140 C.3   102  SER102      0.2116
     78  OG        33.4860   -5.5130   57.9990 O.3   102  SER102     -0.2180
     79  N         24.5540   -2.4450   61.2500 N.3   145  ILE145     -0.1245
     80  CA        25.9290   -2.8760   61.1040 C.3   145  ILE145      0.1561
     81  C         26.2690   -3.4140   59.7180 C.2   145  ILE145      0.2260
     82  O         26.3350   -4.6260   59.5010 O.2   145  ILE145     -0.2867
     83  CB        26.2750   -3.9400   62.1630 C.3   145  ILE145      0.0252
     84  CG1       25.9970   -3.3790   63.5550 C.3   145  ILE145      0.0019
     85  CG2       27.7340   -4.3440   62.0500 C.3   145  ILE145      0.0019
     86  CD1       25.9980   -4.4200   64.6400 C.3   145  ILE145      0.0001
     87  N         28.4210   -4.7610   57.2110 N.3   147  ARG147     -0.1231
     88  CA        29.7120   -5.4070   57.4080 C.3   147  ARG147      0.1694
     89  C         30.1390   -6.1320   56.1570 C.2   147  ARG147      0.2592
     90  O         29.3260   -6.3540   55.2590 O.2   147  ARG147     -0.2718
     91  CB        29.6600   -6.3910   58.5850 C.3   147  ARG147      0.0321
     92  CG        28.3140   -7.0670   58.8130 C.3   147  ARG147      0.0489
     93  CD        28.2860   -7.7800   60.1590 C.3   147  ARG147      0.2205
     94  NE        27.2710   -8.8370   60.2450 N.pl3 147  ARG147     -0.0865
     95  CZ        25.9620   -8.6180   60.3710 C.cat 147  ARG147      0.5346
     96  NH1       25.4960   -7.3780   60.4250 N.pl3 147  ARG147      0.1354
     97  NH2       25.1140   -9.6370   60.4560 N.pl3 147  ARG147      0.1354
     98  N         31.4180   -6.4970   56.0950 N.am  148  THR148     -0.1953
     99  CA        31.9410   -7.1970   54.9330 C.3   148  THR148      0.1897
    100  C         32.5840   -8.5390   55.2780 C.2   148  THR148      0.2313
    101  O         32.4510   -9.0170   56.4020 O.2   148  THR148     -0.2863
    102  CB        32.9080   -6.2980   54.1570 C.3   148  THR148      0.1794
    103  OG1       33.3300   -6.9710   52.9650 O.3   148  THR148     -0.2208
    104  CG2       34.0940   -5.9220   55.0110 C.3   148  THR148      0.0378
    105  N         35.9630   -9.9210   55.6480 N.3   150  GLU150     -0.1245
    106  CA        37.0960  -10.1620   56.5450 C.3   150  GLU150      0.1567
    107  C         38.0440  -11.1290   55.8250 C.2   150  GLU150      0.2260
    108  O         38.7430  -11.9300   56.4530 O.2   150  GLU150     -0.2867
    109  CB        36.6620  -10.7820   57.8760 C.3   150  GLU150      0.0388
    110  CG        35.5900  -10.0210   58.6360 C.3   150  GLU150      0.1160
    111  CD        35.7610   -8.5170   58.5710 C.2   150  GLU150      0.3649
    112  OE1       36.8890   -8.0470   58.3050 O.co2 150  GLU150     -0.2457
    113  OE2       34.7570   -7.8050   58.7930 O.co2 150  GLU150     -0.2457
    114  N         22.4990   -9.9160   64.0240 N.3   169  ALA169     -0.1245
    115  CA        23.3480  -11.0940   64.1390 C.3   169  ALA169      0.1562
    116  C         22.4720  -12.3050   64.4320 C.2   169  ALA169      0.2260
    117  O         22.7560  -13.4090   63.9740 O.2   169  ALA169     -0.2867
    118  CB        24.3690  -10.9030   65.2530 C.3   169  ALA169      0.0290
    119  N         26.7230  -14.3680   55.9780 N.3   199  GLU199     -0.1231
    120  CA        27.7790  -13.4020   56.2110 C.3   199  GLU199      0.1699
    121  C         29.1960  -13.9490   56.3230 C.2   199  GLU199      0.2592
    122  O         29.4090  -15.1600   56.2960 O.2   199  GLU199     -0.2718
    123  CB        27.4450  -12.5410   57.4330 C.3   199  GLU199      0.0402
    124  CG        27.0770  -13.2700   58.7070 C.3   199  GLU199      0.1161
    125  CD        26.9210  -12.2910   59.8600 C.2   199  GLU199      0.3649
    126  OE1       27.8770  -11.5230   60.1170 O.co2 199  GLU199     -0.2457
    127  OE2       25.8480  -12.2720   60.5050 O.co2 199  GLU199     -0.2457
    128  N         30.1580  -13.0300   56.4290 N.am  200  GLU200     -0.1979
    129  CA        31.5780  -13.3620   56.5400 C.3   200  GLU200      0.1602
    130  C         32.0070  -14.3780   55.4820 C.2   200  GLU200      0.2287
    131  O         32.8860  -15.2040   55.7040 O.2   200  GLU200     -0.2864
    132  CB        31.8810  -13.8860   57.9420 C.3   200  GLU200      0.0415
    133  CG        31.5820  -12.8780   59.0470 C.3   200  GLU200      0.1163
    134  CD        32.1500  -13.3010   60.3870 C.2   200  GLU200      0.3649
    135  OE1       31.9610  -14.4720   60.7620 O.co2 200  GLU200     -0.2457
    136  OE2       32.7840  -12.4700   61.0630 O.co2 200  GLU200     -0.2457
    137  N         28.7900  -17.7650   56.8130 N.3   216  ARG216     -0.1245
    138  CA        28.3820  -17.9370   58.1960 C.3   216  ARG216      0.1563
    139  C         26.9530  -17.4960   58.4740 C.2   216  ARG216      0.2260
    140  O         26.6000  -16.3470   58.2260 O.2   216  ARG216     -0.2867
    141  CB        29.3150  -17.1410   59.1160 C.3   216  ARG216      0.0307
    142  CG        29.1940  -17.5280   60.5740 C.3   216  ARG216      0.0489
    143  CD        28.9000  -16.3500   61.4800 C.3   216  ARG216      0.2205
    144  NE        30.1210  -15.6890   61.9200 N.pl3 216  ARG216     -0.0865
    145  CZ        30.3700  -15.2850   63.1650 C.cat 216  ARG216      0.5346
    146  NH1       29.4820  -15.4710   64.1290 N.pl3 216  ARG216      0.1354
    147  NH2       31.5120  -14.6700   63.4450 N.pl3 216  ARG216      0.1354
    148  N         24.5950  -16.9120   61.4620 N.3   218  ASN218     -0.1240
    149  CA        24.7800  -16.7150   62.8940 C.3   218  ASN218      0.1653
    150  C         23.6130  -16.9850   63.8450 C.2   218  ASN218      0.2266
    151  O         23.7840  -16.9240   65.0610 O.2   218  ASN218     -0.2867
    152  CB        25.3020  -15.2850   63.1170 C.3   218  ASN218      0.1155
    153  CG        25.9470  -15.1040   64.4750 C.2   218  ASN218      0.2627
    154  OD1       26.8740  -15.8190   64.8290 O.2   218  ASN218     -0.2716
    155  ND2       25.4570  -14.1440   65.2430 N.am  218  ASN218     -0.0877
    156  N         36.1750  -22.4620   70.1750 N.3   298  ARG298     -0.1245
    157  CA        37.1830  -22.1470   69.1640 C.3   298  ARG298      0.1563
    158  C         38.5530  -22.6720   69.5510 C.2   298  ARG298      0.2260
    159  O         39.4740  -21.9020   69.8070 O.2   298  ARG298     -0.2867
    160  CB        37.2530  -20.6380   68.9390 C.3   298  ARG298      0.0307
    161  CG        35.9560  -19.9190   69.2370 C.3   298  ARG298      0.0489
    162  CD        35.2970  -19.4170   67.9680 C.3   298  ARG298      0.2205
    163  NE        35.5380  -17.9970   67.7440 N.pl3 298  ARG298     -0.0865
    164  CZ        34.6170  -17.1260   67.3380 C.cat 298  ARG298      0.5346
    165  NH1       33.3770  -17.5190   67.1080 N.pl3 298  ARG298      0.1354
    166  NH2       34.9450  -15.8530   67.1470 N.pl3 298  ARG298      0.1354
    167  N         40.3770  -19.7180   65.7650 N.3   332  TRP332     -0.1227
    168  CA        39.2570  -18.8160   65.4920 C.3   332  TRP332      0.1737
    169  C         38.9840  -18.6730   63.9920 C.2   332  TRP332      0.2595
    170  O         38.8260  -19.6690   63.2890 O.2   332  TRP332     -0.2718
    171  CB        39.5100  -17.4420   66.1260 C.3   332  TRP332      0.0564
    172  CG        39.5000  -17.4840   67.6370 C.ar  332  TRP332      0.0003
    173  CD1       40.1400  -18.3920   68.4350 C.ar  332  TRP332      0.0946
    174  CD2       38.7980  -16.5990   68.5240 C.ar  332  TRP332      0.0152
    175  NE1       39.8810  -18.1290   69.7610 N.ar  332  TRP332     -0.2442
    176  CE2       39.0610  -17.0350   69.8450 C.ar  332  TRP332      0.0810
    177  CE3       37.9720  -15.4800   68.3320 C.ar  332  TRP332      0.0012
    178  CZ2       38.5270  -16.3930   70.9690 C.ar  332  TRP332      0.0191
    179  CZ3       37.4420  -14.8380   69.4490 C.ar  332  TRP332      0.0001
    180  CH2       37.7220  -15.2980   70.7530 C.ar  332  TRP332      0.0015
    181  N         38.9340  -17.4510   63.4870 N.am  333  TYR333     -0.1976
    182  CA        38.6390  -17.2840   62.0710 C.3   333  TYR333      0.1639
    183  C         39.6600  -17.9510   61.1700 C.2   333  TYR333      0.2290
    184  O         40.8540  -17.8820   61.4280 O.2   333  TYR333     -0.2864
    185  CB        38.5550  -15.7980   61.7010 C.3   333  TYR333      0.0560
    186  CG        37.2710  -15.1090   62.1260 C.ar  333  TYR333     -0.0198
    187  CD1       36.5310  -15.5690   63.2220 C.ar  333  TYR333     -0.0009
    188  CD2       36.8150  -13.9790   61.4540 C.ar  333  TYR333     -0.0009
    189  CE1       35.3710  -14.9170   63.6410 C.ar  333  TYR333      0.0417
    190  CE2       35.6590  -13.3200   61.8650 C.ar  333  TYR333      0.0417
    191  CZ        34.9410  -13.7930   62.9600 C.ar  333  TYR333      0.1957
    192  OH        33.7980  -13.1390   63.3670 O.3   333  TYR333     -0.2866
@<TRIPOS>BOND
     1   103   102    1
     2   102    99    1
     3   102   104    1
     4    99   100    1
     5    99    98    1
     6    90    89    2
     7   100   101    2
     8   130   131    2
     9   130   129    1
    10   105   106    1
    11   107   108    2
    12   107   106    1
    13   119   120    1
    14    98    89   am
    15    89    88    1
    16   120   121    1
    17   120   123    1
    18   122   121    2
    19   121   128   am
    20   128   129    1
    21   129   132    1
    22   106   109    1
    23   137   138    1
    24    76    75    2
    25    87    88    1
    26    88    91    1
    27   123   124    1
    28    75    74    1
    29   109   110    1
    30   132   133    1
    31    78    77    1
    32   138   139    1
    33   138   141    1
    34   140   139    2
    35   112   111   ar
    36   111   110    1
    37   111   113   ar
    38    91    92    1
    39   124   125    1
    40    92    93    1
    41    77    74    1
    42   133   134    1
    43   141   142    1
    44    74    73    1
    45    82    81    2
    46    27    26    1
    47    81    80    1
    48    15    14    2
    49   125   126   ar
    50   125   127   ar
    51    73    61   am
    52    93    94    1
    53    94    95    2
    54    95    96    1
    55    95    97    1
    56   134   135   ar
    57   134   136   ar
    58   142   143    1
    59    14    13    1
    60    59    60    1
    61    72    71   ar
    62    72    70   ar
    63    80    79    1
    64    80    83    1
    65    71    69   ar
    66    26    28    1
    67    26    25    1
    68   183   184    2
    69   183   182    1
    70    61    62    2
    71    61    60    1
    72    21    22    1
    73   188   190   ar
    74   188   186   ar
    75    70    68   ar
    76   148   149    1
    77   143   144    1
    78    16    13    1
    79    16    17    1
    80    69    66   ar
    81   185   182    1
    82   185   186    1
    83    13    12    1
    84   190   191   ar
    85    22    25    1
    86    22    23    1
    87   144   145    2
    88    68    66   ar
    89    68    67   ar
    90    60    63    1
    91    85    83    1
    92   182   181    1
    93    66    64   ar
    94   186   187   ar
    95    83    84    1
    96    17    18    1
    97    67    65   ar
    98    51    50    2
    99    64    65   ar
   100    64    63    1
   101     4     3    2
   102   149   152    1
   103   149   150    1
   104   191   192    1
   105   191   189   ar
   106    12     3   am
   107   152   153    1
   108    50    49    1
   109   145   147    1
   110   145   146    1
   111   187   189   ar
   112    23    24    2
   113   170   169    2
   114     3     2    1
   115   181   169   am
   116    84    86    1
   117    18    19   ar
   118    18    20   ar
   119   150   151    2
   120   117   116    2
   121   169   168    1
   122   114   115    1
   123   115   116    1
   124   115   118    1
   125   153   154    2
   126   153   155   am
   127    52    49    1
   128    52    53    1
   129    43    42    1
   130    43    44    1
   131    49    48    1
   132     2     1    1
   133     2     5    1
   134    57    56    1
   135    42    41    1
   136    58    56    1
   137    56    55    2
   138    55    54    1
   139    54    53    1
   140   168   167    1
   141   168   171    1
   142    44    45    2
   143    32    31    2
   144    10     9    1
   145     5     6    1
   146   171   172    1
   147    41    38    1
   148    46    45    1
   149    45    47    1
   150     7     6    1
   151     7     8    1
   152    38    37    1
   153    38    39    1
   154    31    37   am
   155    31    30    1
   156     9     8    2
   157     9    11    1
   158   165   164    1
   159    33    30    1
   160    33    34    1
   161   166   164    1
   162   164   163    2
   163    39    40    2
   164   172   173   ar
   165   172   174   ar
   166    30    29    1
   167   163   162    1
   168   162   161    1
   169    34    36   ar
   170    34    35   ar
   171   177   174   ar
   172   177   179   ar
   173   173   175   ar
   174   174   176   ar
   175   160   157    1
   176   160   161    1
   177   157   158    1
   178   157   156    1
   179   179   180   ar
   180   158   159    2
   181   175   176   ar
   182   176   178   ar
   183   180   178   ar
