@<TRIPOS>MOLECULE
tmp/1b9zA01.pdb
 131 125 0 0 0
SMALL
GASTEIGER

@<TRIPOS>ATOM
      1  N         42.9750   50.7660   13.2350 N.3    94  ASN94      -0.1225
      2  CA        42.1630   49.7360   13.8680 C.3    94  ASN94       0.1785
      3  C         42.5130   49.4790   15.3490 C.2    94  ASN94       0.2597
      4  O         43.4650   50.0650   15.8760 O.2    94  ASN94      -0.2718
      5  CB        42.3040   48.4740   13.0150 C.3    94  ASN94       0.1169
      6  CG        41.7070   48.7270   11.6350 C.2    94  ASN94       0.2627
      7  OD1       42.3020   48.4670   10.6030 O.2    94  ASN94      -0.2716
      8  ND2       40.5070   49.2620   11.5290 N.am   94  ASN94      -0.0877
      9  N         41.7220   48.6340   16.0590 N.am   95  VAL95      -0.1980
     10  CA        41.9100   48.2810   17.4780 C.3    95  VAL95       0.1595
     11  C         43.2320   47.5770   17.7840 C.2    95  VAL95       0.2287
     12  O         43.5390   46.4680   17.3060 O.2    95  VAL95      -0.2864
     13  CB        40.6830   47.3520   18.0450 C.3    95  VAL95       0.0276
     14  CG1       40.4450   46.0620   17.2280 C.3    95  VAL95       0.0022
     15  CG2       41.0120   46.8940   19.4920 C.3    95  VAL95       0.0022
     16  N         42.7930   45.3790    8.3270 N.3   170  ALA170     -0.1245
     17  CA        43.3280   44.6070    9.4570 C.3   170  ALA170      0.1562
     18  C         43.6900   43.1710    9.1220 C.2   170  ALA170      0.2260
     19  O         43.7460   42.3130    9.9880 O.2   170  ALA170     -0.2867
     20  CB        42.3520   44.5540   10.6460 C.3   170  ALA170      0.0290
     21  N         41.9320   40.9820    7.2550 N.3   172  GLU172     -0.1245
     22  CA        40.7840   40.0730    7.1960 C.3   172  GLU172      0.1567
     23  C         39.9720   40.2030    5.9170 C.2   172  GLU172      0.2260
     24  O         39.8900   41.2970    5.3660 O.2   172  GLU172     -0.2867
     25  CB        39.8610   40.3470    8.4160 C.3   172  GLU172      0.0388
     26  CG        40.5900   40.0860    9.7220 C.3   172  GLU172      0.1160
     27  CD        40.0040   40.7020   10.9700 C.2   172  GLU172      0.3649
     28  OE1       39.5870   41.8770   10.9530 O.co2 172  GLU172     -0.2457
     29  OE2       39.9970   39.9680   11.9680 O.co2 172  GLU172     -0.2457
     30  N         37.0610   41.2110    4.2780 N.3   174  ARG174     -0.1245
     31  CA        35.8330   41.8810    4.6560 C.3   174  ARG174      0.1563
     32  C         35.8660   43.2800    4.1170 C.2   174  ARG174      0.2260
     33  O         36.8880   43.7080    3.5620 O.2   174  ARG174     -0.2867
     34  CB        35.6680   41.9900    6.1950 C.3   174  ARG174      0.0307
     35  CG        36.7560   42.7940    6.9200 C.3   174  ARG174      0.0489
     36  CD        36.4710   42.9190    8.3840 C.3   174  ARG174      0.2205
     37  NE        37.5300   43.5770    9.1480 N.pl3 174  ARG174     -0.0865
     38  CZ        37.5730   44.9060    9.3220 C.cat 174  ARG174      0.5346
     39  NH1       36.6770   45.7700    8.7980 N.pl3 174  ARG174      0.1354
     40  NH2       38.4610   45.3980   10.1760 N.pl3 174  ARG174      0.1354
     41  N         33.0920   49.0010    9.8950 N.3   178  TYR178     -0.1241
     42  CA        33.1280   49.5520   11.2510 C.3   178  TYR178      0.1605
     43  C         34.3680   50.4410   11.4820 C.2   178  TYR178      0.2264
     44  O         35.4610   49.9940   11.8050 O.2   178  TYR178     -0.2867
     45  CB        33.1060   48.4480   12.3290 C.3   178  TYR178      0.0534
     46  CG        33.9620   47.2040   12.1510 C.ar  178  TYR178     -0.0201
     47  CD1       33.4970   46.1620   11.3320 C.ar  178  TYR178     -0.0009
     48  CD2       35.1460   47.0610   12.8690 C.ar  178  TYR178     -0.0009
     49  CE1       34.1940   44.9560   11.2320 C.ar  178  TYR178      0.0417
     50  CE2       35.8570   45.8520   12.7750 C.ar  178  TYR178      0.0417
     51  CZ        35.3700   44.8160   11.9690 C.ar  178  TYR178      0.1957
     52  OH        36.0180   43.6050   11.9440 O.3   178  TYR178     -0.2866
     53  N         32.3270   49.9450   16.9750 N.3   186  TYR186     -0.1241
     54  CA        31.6230   49.1170   17.9650 C.3   186  TYR186      0.1605
     55  C         30.9160   49.9690   19.0200 C.2   186  TYR186      0.2264
     56  O         31.5330   50.9530   19.4600 O.2   186  TYR186     -0.2867
     57  CB        32.6600   48.1970   18.6190 C.3   186  TYR186      0.0534
     58  CG        32.1560   47.3980   19.8320 C.ar  186  TYR186     -0.0201
     59  CD1       32.1050   47.9790   21.1230 C.ar  186  TYR186     -0.0009
     60  CD2       31.7390   46.0710   19.6500 C.ar  186  TYR186     -0.0009
     61  CE1       31.6410   47.2450   22.2120 C.ar  186  TYR186      0.0417
     62  CE2       31.2790   45.3370   20.7420 C.ar  186  TYR186      0.0417
     63  CZ        31.2360   45.9280   22.0020 C.ar  186  TYR186      0.1957
     64  OH        30.8130   45.1780   23.0730 O.3   186  TYR186     -0.2866
     65  N         37.0200   37.9690   10.1280 N.3   289  ALA289     -0.1231
     66  CA        36.7370   38.7380   11.3220 C.3   289  ALA289      0.1694
     67  C         35.6150   38.1970   12.1700 C.2   289  ALA289      0.2592
     68  O         34.7460   37.4920   11.6860 O.2   289  ALA289     -0.2718
     69  CB        36.3770   40.1520   10.9440 C.3   289  ALA289      0.0304
     70  N         35.6210   38.4990   13.4620 N.am  290  GLY290     -0.1957
     71  CA        34.5770   38.0580   14.3600 C.3   290  GLY290      0.1869
     72  C         33.6710   39.2740   14.6090 C.2   290  GLY290      0.2309
     73  O         33.8870   40.0390   15.5580 O.2   290  GLY290     -0.2863
     74  N         30.7220   40.1430   16.1410 N.3   292  HIS292     -0.1226
     75  CA        29.7650   39.5930   17.0870 C.3   292  HIS292      0.1752
     76  C         28.7150   40.5240   17.6800 C.2   292  HIS292      0.2596
     77  O         27.9110   40.0540   18.4870 O.2   292  HIS292     -0.2718
     78  CB        30.5880   38.9580   18.2160 C.3   292  HIS292      0.0759
     79  CG        31.4060   39.9920   18.9720 C.ar  292  HIS292      0.0818
     80  ND1       32.6430   40.3980   18.7750 N.ar  292  HIS292     -0.2268
     81  CD2       30.9230   40.7870   19.9980 C.ar  292  HIS292      0.1154
     82  CE1       32.9090   41.3880   19.6120 C.ar  292  HIS292      0.1986
     83  NE2       31.8510   41.6140   20.3490 N.ar  292  HIS292     -0.2212
     84  N         28.7830   41.8410   17.4020 N.am  293  TRP293     -0.1976
     85  CA        27.8260   42.7880   17.9340 C.3   293  TRP293      0.1640
     86  C         26.6900   42.9490   16.9310 C.2   293  TRP293      0.2290
     87  O         26.8210   42.6780   15.7290 O.2   293  TRP293     -0.2864
     88  CB        28.5440   44.1150   18.2360 C.3   293  TRP293      0.0576
     89  CG        29.3190   44.8280   17.1390 C.ar  293  TRP293      0.0006
     90  CD1       28.7760   45.9090   16.5130 C.ar  293  TRP293      0.0946
     91  CD2       30.5890   44.5390   16.6970 C.ar  293  TRP293      0.0152
     92  NE1       29.6880   46.3240   15.6740 N.ar  293  TRP293     -0.2442
     93  CE2       30.7820   45.5500   15.7420 C.ar  293  TRP293      0.0810
     94  CE3       31.6040   43.6010   16.9410 C.ar  293  TRP293      0.0012
     95  CZ2       31.9800   45.6380   15.0140 C.ar  293  TRP293      0.0191
     96  CZ3       32.8070   43.6850   16.2140 C.ar  293  TRP293      0.0001
     97  CH2       32.9900   44.6940   15.2570 C.ar  293  TRP293      0.0015
     98  N         39.1690   35.0100   14.1690 N.3   330  THR330     -0.1203
     99  CA        39.8360   35.8090   15.1610 C.3   330  THR330      0.1994
    100  C         39.1530   36.2080   16.4550 C.2   330  THR330      0.2618
    101  O         39.5640   37.2630   16.9600 O.2   330  THR330     -0.2717
    102  CB        40.4150   37.0980   14.4030 C.3   330  THR330      0.1784
    103  OG1       39.3380   38.0110   14.2920 O.3   330  THR330     -0.2211
    104  CG2       40.9710   36.8540   12.9980 C.3   330  THR330      0.0376
    105  N         38.2850   35.3820   17.1070 N.am  331  CYS331     -0.1969
    106  CA        37.6070   35.8340   18.3460 C.3   331  CYS331      0.1712
    107  C         37.2990   34.8840   19.5350 C.2   331  CYS331      0.2296
    108  O         36.3010   35.0870   20.2570 O.2   331  CYS331     -0.2864
    109  CB        36.3020   36.4990   17.8300 C.3   331  CYS331      0.0983
    110  SG        35.6380   37.8690   18.7920 S.3   331  CYS331     -0.0798
    111  N         35.9640   35.4200   24.2520 N.3   334  MET334     -0.1245
    112  CA        34.7780   36.0720   24.7670 C.3   334  MET334      0.1570
    113  C         33.6030   35.1690   25.0800 C.2   334  MET334      0.2261
    114  O         33.5990   34.0170   24.6320 O.2   334  MET334     -0.2867
    115  CB        34.3940   37.1110   23.7730 C.3   334  MET334      0.0387
    116  CG        35.4460   38.1690   23.6390 C.3   334  MET334      0.0595
    117  SD        35.1020   39.4230   22.3760 S.3   334  MET334     -0.1393
    118  CE        33.9920   40.4010   23.3580 C.3   334  MET334      0.0692
    119  N         40.7320   38.1720   20.1490 N.3   369  ALA369     -0.1231
    120  CA        40.5230   39.4880   19.5530 C.3   369  ALA369      0.1694
    121  C         41.2370   40.6280   20.2740 C.2   369  ALA369      0.2591
    122  O         41.6860   41.6080   19.6500 O.2   369  ALA369     -0.2718
    123  CB        39.0110   39.7910   19.5010 C.3   369  ALA369      0.0304
    124  N         41.2830   40.5240   21.6020 N.am  370  LEU370     -0.1980
    125  CA        41.9140   41.5190   22.4570 C.3   370  LEU370      0.1596
    126  C         42.9050   40.9400   23.4310 C.2   370  LEU370      0.2287
    127  O         42.8370   39.7560   23.7440 O.2   370  LEU370     -0.2864
    128  CB        40.8860   42.2550   23.2680 C.3   370  LEU370      0.0297
    129  CG        40.0470   43.4430   22.7690 C.3   370  LEU370      0.0022
    130  CD1       39.7230   43.4070   21.3070 C.3   370  LEU370      0.0001
    131  CD2       38.7090   43.3640   23.5190 C.3   370  LEU370      0.0001
@<TRIPOS>BOND
     1    33    32    2
     2    32    31    1
     3    30    31    1
     4    31    34    1
     5    24    23    2
     6    23    22    1
     7    34    35    1
     8    35    36    1
     9    22    21    1
    10    22    25    1
    11    16    17    1
    12    36    37    1
    13    25    26    1
    14    39    38    1
    15    18    17    1
    16    18    19    2
    17    37    38    2
    18    38    40    1
    19    17    20    1
    20    26    27    1
    21    41    42    1
    22    65    66    1
    23     7     6    2
    24    69    66    1
    25    28    27   ar
    26    27    29   ar
    27    49    47   ar
    28    49    51   ar
    29    42    43    1
    30    42    45    1
    31    66    67    1
    32    47    46   ar
    33    43    44    2
    34     8     6   am
    35     6     5    1
    36    68    67    2
    37    52    51    1
    38    51    50   ar
    39    46    45    1
    40    46    48   ar
    41    67    70   am
    42    50    48   ar
    43   104   102    1
    44     5     2    1
    45     1     2    1
    46    70    71    1
    47     2     3    1
    48    98    99    1
    49   103   102    1
    50    71    72    1
    51   102    99    1
    52    72    73    2
    53    95    97   ar
    54    95    93   ar
    55    99   100    1
    56    97    96   ar
    57     3     4    2
    58     3     9   am
    59    92    93   ar
    60    92    90   ar
    61    87    86    2
    62    93    91   ar
    63     9    10    1
    64    74    75    1
    65    96    94   ar
    66   100   101    2
    67   100   105   am
    68    90    89   ar
    69    91    94   ar
    70    91    89   ar
    71    86    85    1
    72    53    54    1
    73    75    76    1
    74    75    78    1
    75   105   106    1
    76    89    88    1
    77    14    13    1
    78    12    11    2
    79    84    76   am
    80    84    85    1
    81    10    11    1
    82    10    13    1
    83    76    77    2
    84   109   106    1
    85   109   110    1
    86    85    88    1
    87    54    57    1
    88    54    55    1
    89    13    15    1
    90    78    79    1
    91   106   107    1
    92    57    58    1
    93    80    79   ar
    94    80    82   ar
    95    79    81   ar
    96    55    56    2
    97   123   120    1
    98   107   108    2
    99   120   119    1
   100   120   121    1
   101    82    83   ar
   102   122   121    2
   103    60    58   ar
   104    60    62   ar
   105    58    59   ar
   106    81    83   ar
   107   121   124   am
   108    62    63   ar
   109    59    61   ar
   110   130   129    1
   111   124   125    1
   112    63    61   ar
   113    63    64    1
   114   117   118    1
   115   117   116    1
   116   125   128    1
   117   125   126    1
   118   129   128    1
   119   129   131    1
   120   126   127    2
   121   116   115    1
   122   115   112    1
   123   111   112    1
   124   114   113    2
   125   112   113    1
