@<TRIPOS>MOLECULE
tmp/1ba8B01.pdb
 224 225 0 0 0
SMALL
GASTEIGER

@<TRIPOS>ATOM
      1  N         14.3340   -7.9050    9.3410 N.3    27  LEU27      -0.1231
      2  CA        15.4310   -8.2410   10.2370 C.3    27  LEU27       0.1693
      3  C         15.0700   -7.9330   11.6800 C.2    27  LEU27       0.2592
      4  O         15.0950   -8.7770   12.5700 O.2    27  LEU27      -0.2718
      5  CB        16.6660   -7.5050    9.7620 C.3    27  LEU27       0.0284
      6  CG        17.8550   -8.2370    9.1830 C.3    27  LEU27       0.0019
      7  CD1       17.4510   -9.3620    8.1960 C.3    27  LEU27       0.0001
      8  CD2       18.7670   -7.2020    8.5250 C.3    27  LEU27       0.0001
      9  N         14.6220   -6.6820   11.8830 N.am   28  CYS28      -0.1970
     10  CA        14.3370   -6.2610   13.3050 C.3    28  CYS28       0.1712
     11  C         13.5630   -4.9200   13.2430 C.2    28  CYS28       0.2296
     12  O         13.3430   -4.3870   12.1690 O.2    28  CYS28      -0.2864
     13  CB        15.7550   -5.9900   13.8000 C.3    28  CYS28       0.0983
     14  SG        16.7000   -7.2750   14.6990 S.3    28  CYS28      -0.0798
     15  N         22.5400   -7.0280   18.5540 N.3    43  HIS43      -0.1241
     16  CA        22.4060   -8.4180   18.0630 C.3    43  HIS43       0.1621
     17  C         21.6270   -8.5590   16.7690 C.2    43  HIS43       0.2264
     18  O         21.6310   -9.6440   16.1400 O.2    43  HIS43      -0.2867
     19  CB        21.8980   -9.2720   19.2190 C.3    43  HIS43       0.0745
     20  CG        20.4000   -9.4190   19.1920 C.ar   43  HIS43       0.0817
     21  ND1       19.5580   -8.7430   20.0270 N.ar   43  HIS43      -0.2268
     22  CD2       19.6420  -10.2120   18.4000 C.ar   43  HIS43       0.1154
     23  CE1       18.3140   -9.1720   19.7570 C.ar   43  HIS43       0.1986
     24  NE2       18.3530  -10.0170   18.7500 N.ar   43  HIS43      -0.2212
     25  N         25.8830  -11.2490   15.6070 N.3    47  TYR47      -0.1298
     26  CA        25.5520  -12.3490   16.5070 C.3    47  TYR47       0.1290
     27  C         26.3710  -13.5500   15.9990 C.3    47  TYR47       0.2013
     28  O         25.7240  -14.3600   15.3600 O.3    47  TYR47      -0.2188
     29  CB        24.0570  -12.6720   16.5880 C.3    47  TYR47       0.0480
     30  CG        23.8030  -13.5870   17.7610 C.ar   47  TYR47      -0.0204
     31  CD1       24.2430  -13.1270   19.0160 C.ar   47  TYR47      -0.0009
     32  CD2       23.2860  -14.8760   17.6750 C.ar   47  TYR47      -0.0009
     33  CE1       24.1140  -13.9210   20.1560 C.ar   47  TYR47       0.0417
     34  CE2       23.1620  -15.6990   18.7970 C.ar   47  TYR47       0.0417
     35  CZ        23.6060  -15.2080   20.0190 C.ar   47  TYR47       0.1957
     36  OH        23.4900  -15.9740   21.1640 O.3    47  TYR47      -0.2866
     37  N         25.4810  -17.3440   15.4420 N.3    50  TRP50      -0.1241
     38  CA        24.5520  -17.6420   14.3720 C.3    50  TRP50       0.1605
     39  C         25.1440  -17.0970   13.0510 C.2    50  TRP50       0.2264
     40  O         24.3220  -16.9170   12.1330 O.2    50  TRP50      -0.2867
     41  CB        23.1090  -17.2090   14.4860 C.3    50  TRP50       0.0550
     42  CG        22.3750  -17.7220   15.6830 C.ar   50  TRP50       0.0003
     43  CD1       22.7040  -18.7920   16.4480 C.ar   50  TRP50       0.0946
     44  CD2       21.1640  -17.2080   16.2620 C.ar   50  TRP50       0.0152
     45  NE1       21.7970  -19.0000   17.4590 N.ar   50  TRP50      -0.2442
     46  CE2       20.8330  -18.0330   17.3610 C.ar   50  TRP50       0.0810
     47  CE3       20.3310  -16.1380   15.9310 C.ar   50  TRP50       0.0012
     48  CZ2       19.7240  -17.8330   18.1640 C.ar   50  TRP50       0.0191
     49  CZ3       19.2230  -15.9210   16.7310 C.ar   50  TRP50       0.0001
     50  CH2       18.9010  -16.7440   17.8280 C.ar   50  TRP50       0.0015
     51  N         28.2130  -10.3840   23.1840 N.3    92  TRP92      -0.1241
     52  CA        27.4490  -11.4230   22.4930 C.3    92  TRP92       0.1605
     53  C         27.9040  -12.8040   22.9800 C.2    92  TRP92       0.2264
     54  O         27.1310  -13.7510   22.7830 O.2    92  TRP92      -0.2867
     55  CB        27.6180  -11.3280   20.9720 C.3    92  TRP92       0.0550
     56  CG        29.0480  -11.2990   20.5770 C.ar   92  TRP92       0.0003
     57  CD1       29.8190  -10.1950   20.3730 C.ar   92  TRP92       0.0946
     58  CD2       29.8880  -12.4490   20.3300 C.ar   92  TRP92       0.0152
     59  NE1       31.1080  -10.5770   20.0590 N.ar   92  TRP92      -0.2442
     60  CE2       31.1700  -11.9440   19.9760 C.ar   92  TRP92       0.0810
     61  CE3       29.6610  -13.8440   20.3410 C.ar   92  TRP92       0.0012
     62  CZ2       32.2660  -12.7740   19.6630 C.ar   92  TRP92       0.0191
     63  CZ3       30.7390  -14.6730   20.0340 C.ar   92  TRP92       0.0001
     64  CH2       31.9920  -14.1390   19.7230 C.ar   92  TRP92       0.0015
     65  N         28.0770  -13.8020   25.9820 N.3    94  GLU94      -0.1231
     66  CA        27.3300  -14.4710   27.0920 C.3    94  GLU94       0.1699
     67  C         25.9180  -14.0580   27.3540 C.2    94  GLU94       0.2592
     68  O         25.0270  -14.9630   27.2740 O.2    94  GLU94      -0.2718
     69  CB        28.1800  -14.3310   28.3380 C.3    94  GLU94       0.0402
     70  CG        27.7320  -14.4790   29.7480 C.3    94  GLU94       0.1161
     71  CD        28.5950  -13.7340   30.7710 C.2    94  GLU94       0.3649
     72  OE1       29.6230  -13.0790   30.5590 O.co2  94  GLU94      -0.2457
     73  OE2       28.0620  -13.8920   31.9120 O.co2  94  GLU94      -0.2457
     74  N         25.6220  -12.7860   27.6160 N.am   95  ASN95      -0.1960
     75  CA        24.2450  -12.4230   27.9810 C.3    95  ASN95       0.1819
     76  C         23.5970  -11.2800   27.2050 C.2    95  ASN95       0.2621
     77  O         22.5090  -10.8700   27.6100 O.2    95  ASN95      -0.2715
     78  CB        24.2350  -12.2030   29.5270 C.3    95  ASN95       0.1195
     79  CG        25.2300  -11.1230   29.9670 C.2    95  ASN95       0.2630
     80  OD1       25.9860  -10.6610   29.1320 O.2    95  ASN95      -0.2716
     81  ND2       25.1930  -10.7260   31.2260 N.am   95  ASN95      -0.0877
     82  N         24.2510  -10.8400   26.1620 N.am   96  LEU96      -0.1977
     83  CA        23.6890   -9.7220   25.3270 C.3    96  LEU96       0.1596
     84  C         23.7510   -8.4310   26.1420 C.2    96  LEU96       0.2287
     85  O         22.8320   -7.6160   25.9690 O.2    96  LEU96      -0.2864
     86  CB        22.2610  -10.0730   24.8980 C.3    96  LEU96       0.0297
     87  CG        22.0410  -10.4120   23.4360 C.3    96  LEU96       0.0022
     88  CD1       23.2290  -11.1480   22.8450 C.3    96  LEU96       0.0001
     89  CD2       20.7940  -11.2750   23.2870 C.3    96  LEU96       0.0001
     90  N         20.0920  -16.9420   32.9380 N.3   172  ILE172     -0.1245
     91  CA        21.0380  -15.9780   32.3370 C.3   172  ILE172      0.1561
     92  C         21.4590  -14.9260   33.3920 C.2   172  ILE172      0.2260
     93  O         20.6810  -14.5280   34.2570 O.2   172  ILE172     -0.2867
     94  CB        20.3630  -15.3900   31.0380 C.3   172  ILE172      0.0252
     95  CG1       20.1170  -16.5330   30.0110 C.3   172  ILE172      0.0019
     96  CG2       21.2000  -14.2290   30.4390 C.3   172  ILE172      0.0019
     97  CD1       21.3370  -16.8480   29.0600 C.3   172  ILE172      0.0001
     98  N          3.8460   -9.9210   25.1990 N.3   192  ASP192     -0.1225
     99  CA         5.2830   -9.9020   25.1090 C.3   192  ASP192      0.1805
    100  C          5.6940   -9.5540   23.6720 C.2   192  ASP192      0.2598
    101  O          4.9070   -9.4910   22.7340 O.2   192  ASP192     -0.2718
    102  CB         5.7420  -11.3650   25.4550 C.3   192  ASP192      0.1424
    103  CG         7.0920  -11.5290   26.0510 C.2   192  ASP192      0.3668
    104  OD1        7.7870  -10.5010   26.2460 O.co2 192  ASP192     -0.2456
    105  OD2        7.6040  -12.6630   26.3830 O.co2 192  ASP192     -0.2456
    106  N          6.9640   -9.3190   23.4960 N.am  193  ALA193     -0.1966
    107  CA         7.6940   -9.0670   22.2480 C.3   193  ALA193      0.1728
    108  C          8.0320  -10.5500   21.8520 C.2   193  ALA193      0.2616
    109  O          7.9160  -11.4220   22.7590 O.2   193  ALA193     -0.2715
    110  CB         9.0210   -8.3310   22.3870 C.3   193  ALA193      0.0334
    111  N          8.4980  -10.7360   20.6490 N.am  194  CYS194     -0.1954
    112  CA         8.8170  -12.1490   20.2710 C.3   194  CYS194      0.1843
    113  C          9.8140  -11.9780   19.1370 C.2   194  CYS194      0.2625
    114  O         10.1510  -10.7880   18.8740 O.2   194  CYS194     -0.2714
    115  CB         7.4960  -12.8080   19.8950 C.3   194  CYS194      0.0997
    116  SG         7.5760  -14.6530   19.7770 S.3   194  CYS194     -0.0797
    117  N         10.2230  -13.0530   18.4930 N.am  195  GLU195     -0.1963
    118  CA        11.1830  -12.9600   17.3560 C.3   195  GLU195      0.1733
    119  C         10.7010  -11.9470   16.3210 C.2   195  GLU195      0.2616
    120  O          9.5340  -12.0380   15.9070 O.2   195  GLU195     -0.2715
    121  CB        11.2140  -14.3360   16.6540 C.3   195  GLU195      0.0429
    122  CG        11.5780  -14.4600   15.1930 C.3   195  GLU195      0.1163
    123  CD        12.2450  -15.7120   14.6720 C.2   195  GLU195      0.3649
    124  OE1       11.5810  -16.7960   14.8380 O.co2 195  GLU195     -0.2457
    125  OE2       13.3590  -15.7200   14.0940 O.co2 195  GLU195     -0.2457
    126  N         11.5380  -11.0770   15.8180 N.am  196  GLY196     -0.1955
    127  CA        11.0970  -10.0820   14.8180 C.3   196  GLY196      0.1869
    128  C         10.9080   -8.6710   15.4040 C.2   196  GLY196      0.2309
    129  O         10.9100   -7.7330   14.5880 O.2   196  GLY196     -0.2863
    130  N         12.8970   -7.5890   17.9730 N.3   198  SER198     -0.1217
    131  CA        14.1630   -7.0840   18.4860 C.3   198  SER198      0.1889
    132  C         14.4930   -5.7390   17.8540 C.2   198  SER198      0.2288
    133  O         14.2250   -5.5230   16.6810 O.2   198  SER198     -0.2866
    134  CB        15.3200   -8.0870   18.2510 C.3   198  SER198      0.2089
    135  OG        14.9890   -9.2190   19.0660 O.3   198  SER198     -0.2183
    136  N         14.0630   -3.6120   22.6380 N.3   218  VAL218     -0.1231
    137  CA        13.7350   -5.0370   22.6980 C.3   218  VAL218      0.1692
    138  C         15.0360   -5.8060   22.5350 C.2   218  VAL218      0.2593
    139  O         15.7740   -5.7340   21.5060 O.2   218  VAL218     -0.2718
    140  CB        12.6590   -5.4470   21.6350 C.3   218  VAL218      0.0266
    141  CG1       12.3220   -6.9730   21.7410 C.3   218  VAL218      0.0020
    142  CG2       11.3770   -4.6550   21.6730 C.3   218  VAL218      0.0020
    143  N         15.3710   -6.6250   23.5310 N.am  219  SER219     -0.1938
    144  CA        16.6190   -7.3550   23.4340 C.3   219  SER219      0.2055
    145  C         16.5320   -8.8570   23.2990 C.2   219  SER219      0.2643
    146  O         16.9750   -9.3770   22.2500 O.2   219  SER219     -0.2714
    147  CB        17.5550   -6.9660   24.6410 C.3   219  SER219      0.2130
    148  OG        18.8660   -7.3310   24.3160 O.3   219  SER219     -0.2179
    149  N         16.0810   -9.5160   24.3350 N.am  220  TRP220     -0.1959
    150  CA        16.0290  -10.9600   24.5270 C.3   220  TRP220      0.1771
    151  C         14.9800  -11.4690   25.4510 C.2   220  TRP220      0.2620
    152  O         14.3230  -10.7490   26.1730 O.2   220  TRP220     -0.2715
    153  CB        17.4380  -11.4260   24.9830 C.3   220  TRP220      0.0590
    154  CG        17.9270  -11.1480   26.3570 C.ar  220  TRP220      0.0006
    155  CD1       18.6390  -10.0610   26.7840 C.ar  220  TRP220      0.0946
    156  CD2       17.7500  -11.9590   27.5540 C.ar  220  TRP220      0.0152
    157  NE1       18.9530  -10.1270   28.1390 N.ar  220  TRP220     -0.2442
    158  CE2       18.4140  -11.2860   28.6170 C.ar  220  TRP220      0.0810
    159  CE3       17.1650  -13.2080   27.7880 C.ar  220  TRP220      0.0012
    160  CZ2       18.4700  -11.8050   29.9060 C.ar  220  TRP220      0.0191
    161  CZ3       17.1920  -13.6930   29.0690 C.ar  220  TRP220      0.0001
    162  CH2       17.8410  -13.0160   30.1270 C.ar  220  TRP220      0.0015
    163  N         14.7930  -12.8380   25.3480 N.am  221  GLY221     -0.1940
    164  CA        13.8090  -13.5190   26.2060 C.3   221  GLY221      0.2014
    165  C         14.0290  -15.0420   25.8960 C.2   221  GLY221      0.2639
    166  O         14.8890  -15.3140   25.0780 O.2   221  GLY221     -0.2714
    167  N         13.2400  -15.8130   26.5330 N.am  222  GLU222     -0.1963
    168  CA        13.2180  -17.3130   26.3740 C.3   222  GLU222      0.1733
    169  C         11.8030  -17.6660   26.0680 C.2   222  GLU222      0.2617
    170  O         10.8640  -17.6670   26.8870 O.2   222  GLU222     -0.2715
    171  CB        13.8280  -17.9900   27.5940 C.3   222  GLU222      0.0429
    172  CG        15.0270  -17.2480   28.1950 C.3   222  GLU222      0.1163
    173  CD        15.5520  -17.7160   29.5120 C.2   222  GLU222      0.3649
    174  OE1       14.9420  -17.2590   30.4920 O.co2 222  GLU222     -0.2457
    175  OE2       16.5010  -18.5210   29.5450 O.co2 222  GLU222     -0.2457
    176  N         11.6420  -17.9440   24.7970 N.am  223  GLY223     -0.1940
    177  CA        10.2880  -18.2620   24.2490 C.3   223  GLY223      0.2014
    178  C          9.5860  -16.8930   24.2020 C.2   223  GLY223      0.2639
    179  O         10.3050  -15.8580   24.2460 O.2   223  GLY223     -0.2714
    180  N          8.2950  -16.8830   24.1640 N.am  224  CYS224     -0.1967
    181  CA         7.5810  -15.5720   24.0930 C.3   224  CYS224      0.1712
    182  C          6.2930  -15.6640   24.8780 C.2   224  CYS224      0.2296
    183  O          5.4830  -16.5750   24.5170 O.2   224  CYS224     -0.2864
    184  CB         7.2740  -15.2090   22.6620 C.3   224  CYS224      0.0983
    185  SG         8.5520  -15.1970   21.4440 S.3   224  CYS224     -0.0798
    186  N          9.8650  -13.3520   31.4250 N.3   230  TYR230     -0.1227
    187  CA         9.7820  -11.9310   31.1150 C.3   230  TYR230      0.1736
    188  C         10.7350  -11.5330   30.0000 C.2   230  TYR230      0.2596
    189  O         11.8100  -12.0740   29.7650 O.2   230  TYR230     -0.2718
    190  CB        10.1360  -11.0120   32.3520 C.3   230  TYR230      0.0548
    191  CG         9.2870  -11.4270   33.5200 C.ar  230  TYR230     -0.0200
    192  CD1        9.7540  -12.4790   34.3430 C.ar  230  TYR230     -0.0009
    193  CD2        8.0760  -10.8320   33.7650 C.ar  230  TYR230     -0.0009
    194  CE1        8.9770  -12.9050   35.3980 C.ar  230  TYR230      0.0417
    195  CE2        7.2860  -11.2760   34.8190 C.ar  230  TYR230      0.0417
    196  CZ         7.7510  -12.3280   35.6110 C.ar  230  TYR230      0.1957
    197  OH         6.9130  -12.7350   36.6100 O.3   230  TYR230     -0.2866
    198  N         10.2880  -10.4960   29.2800 N.am  231  GLY231     -0.1942
    199  CA        11.0550   -9.9270   28.1690 C.3   231  GLY231      0.2014
    200  C         12.0750   -8.9950   28.8430 C.2   231  GLY231      0.2639
    201  O         11.7500   -8.3910   29.8640 O.2   231  GLY231     -0.2714
    202  N         13.2350   -8.9540   28.2460 N.am  232  PHE232     -0.1959
    203  CA        14.3720   -8.1790   28.6590 C.3   232  PHE232      0.1771
    204  C         14.7080   -7.1670   27.5840 C.2   232  PHE232      0.2616
    205  O         14.6510   -7.4930   26.3820 O.2   232  PHE232     -0.2715
    206  CB        15.6800   -9.0120   28.8750 C.3   232  PHE232      0.0574
    207  CG        15.5750   -9.7310   30.1920 C.ar  232  PHE232     -0.0200
    208  CD1       14.7850  -10.8620   30.2330 C.ar  232  PHE232     -0.0042
    209  CD2       16.1940   -9.2290   31.3320 C.ar  232  PHE232     -0.0042
    210  CE1       14.5830  -11.5760   31.4150 C.ar  232  PHE232     -0.0003
    211  CE2       16.0290   -9.9520   32.5470 C.ar  232  PHE232     -0.0003
    212  CZ        15.2270  -11.0910   32.5600 C.ar  232  PHE232     -0.0000
    213  N         15.0830   -6.0030   28.1150 N.am  233  TYR233     -0.2027
    214  CA        15.3550   -4.8460   27.2540 C.3   233  TYR233      0.1325
    215  C         16.6130   -4.0950   27.5710 C.3   233  TYR233      0.2039
    216  O         16.8560   -4.0150   28.7850 O.3   233  TYR233     -0.2185
    217  CB        14.1120   -3.8650   27.5040 C.3   233  TYR233      0.0507
    218  CG        12.7830   -4.4340   27.1710 C.ar  233  TYR233     -0.0202
    219  CD1       12.0600   -5.2890   28.0470 C.ar  233  TYR233     -0.0009
    220  CD2       12.1900   -4.1610   25.9250 C.ar  233  TYR233     -0.0009
    221  CE1       10.8610   -5.8390   27.6770 C.ar  233  TYR233      0.0417
    222  CE2       10.9750   -4.6740   25.5820 C.ar  233  TYR233      0.0417
    223  CZ        10.3120   -5.5370   26.4630 C.ar  233  TYR233      0.1957
    224  OH         9.1520   -6.0940   26.0240 O.3   233  TYR233     -0.2866
@<TRIPOS>BOND
     1     7     6    1
     2     8     6    1
     3     6     5    1
     4     1     2    1
     5     5     2    1
     6     2     3    1
     7     3     9   am
     8     3     4    2
     9     9    10    1
    10    40    39    2
    11    12    11    2
    12    39    38    1
    13    11    10    1
    14    10    13    1
    15    13    14    1
    16   125   123   ar
    17    38    41    1
    18    38    37    1
    19    41    42    1
    20   129   128    2
    21   123   124   ar
    22   123   122    1
    23   127   128    1
    24   127   126    1
    25   122   121    1
    26    28    27    1
    27    25    26    1
    28    42    44   ar
    29    42    43   ar
    30   126   119   am
    31   120   119    2
    32    47    44   ar
    33    47    49   ar
    34    27    26    1
    35    18    17    2
    36    44    46   ar
    37   119   118    1
    38    43    45   ar
    39    26    29    1
    40    29    30    1
    41   121   118    1
    42   133   132    2
    43    49    50   ar
    44    17    16    1
    45   118   117    1
    46    46    45   ar
    47    46    48   ar
    48    32    30   ar
    49    32    34   ar
    50    30    31   ar
    51    50    48   ar
    52   132   131    1
    53   130   131    1
    54    16    15    1
    55    16    19    1
    56   134   131    1
    57   134   135    1
    58    22    24   ar
    59    22    20   ar
    60   117   113   am
    61    24    23   ar
    62    34    35   ar
    63   114   113    2
    64    31    33   ar
    65   113   112    1
    66    20    19    1
    67    20    21   ar
    68    62    64   ar
    69    62    60   ar
    70    64    63   ar
    71    23    21   ar
    72   116   115    1
    73   116   185    1
    74   115   112    1
    75    60    59   ar
    76    60    58   ar
    77    35    33   ar
    78    35    36    1
    79    63    61   ar
    80    59    57   ar
    81   112   111    1
    82    58    61   ar
    83    58    56   ar
    84    57    56   ar
    85    56    55    1
    86   111   108   am
    87    55    52    1
    88   185   184    1
    89   139   138    2
    90   140   142    1
    91   140   141    1
    92   140   137    1
    93   108   107    1
    94   108   109    2
    95   107   110    1
    96   107   106    1
    97   146   145    2
    98    52    53    1
    99    52    51    1
   100   138   137    1
   101   138   143   am
   102   136   137    1
   103   184   181    1
   104   101   100    2
   105    54    53    2
   106    88    87    1
   107    89    87    1
   108   145   144    1
   109   145   149   am
   110   144   143    1
   111   144   147    1
   112    87    86    1
   113   106   100   am
   114   100    99    1
   115   181   180    1
   116   181   182    1
   117   180   178   am
   118   178   179    2
   119   178   177    1
   120   177   176    1
   121   148   147    1
   122   149   150    1
   123   183   182    2
   124   150   153    1
   125   150   151    1
   126   176   169   am
   127    86    83    1
   128   153   154    1
   129   166   165    2
   130    99    98    1
   131    99   102    1
   132    83    84    1
   133    83    82    1
   134   163   151   am
   135   163   164    1
   136   151   152    2
   137   102   103    1
   138   222   220   ar
   139   222   223   ar
   140   165   164    1
   141   165   167   am
   142   220   218   ar
   143    85    84    2
   144    65    66    1
   145   224   223    1
   146   103   104   ar
   147   103   105   ar
   148   169   168    1
   149   169   170    2
   150    82    76   am
   151   154   155   ar
   152   154   156   ar
   153   168   167    1
   154   168   171    1
   155   205   204    2
   156   223   221   ar
   157   155   157   ar
   158    66    67    1
   159    66    69    1
   160   218   217    1
   161   218   219   ar
   162    76    77    2
   163    76    75    1
   164   214   217    1
   165   214   215    1
   166   214   213    1
   167    68    67    2
   168    67    74   am
   169   156   159   ar
   170   156   158   ar
   171   215   216    1
   172   204   213   am
   173   204   203    1
   174   171   172    1
   175    74    75    1
   176   221   219   ar
   177   159   161   ar
   178    75    78    1
   179   157   158   ar
   180   199   200    1
   181   199   198    1
   182   172   173    1
   183   202   203    1
   184   202   200   am
   185    69    70    1
   186   158   160   ar
   187   203   206    1
   188   200   201    2
   189   206   207    1
   190    97    95    1
   191   161   162   ar
   192    80    79    2
   193   198   188   am
   194   173   175   ar
   195   173   174   ar
   196    78    79    1
   197    70    71    1
   198   189   188    2
   199   160   162   ar
   200    79    81   am
   201   188   187    1
   202    95    94    1
   203   207   208   ar
   204   207   209   ar
   205   208   210   ar
   206    96    94    1
   207    72    71   ar
   208    71    73   ar
   209    94    91    1
   210   187   186    1
   211   187   190    1
   212   209   211   ar
   213   210   212   ar
   214    91    90    1
   215    91    92    1
   216   190   191    1
   217   211   212   ar
   218    92    93    2
   219   191   193   ar
   220   191   192   ar
   221   193   195   ar
   222   192   194   ar
   223   195   196   ar
   224   194   196   ar
   225   196   197    1
