@<TRIPOS>MOLECULE
tmp/1bagA00.pdb
 218 213 0 0 0
SMALL
GASTEIGER

@<TRIPOS>ATOM
      1  N         -1.9370   38.1310   25.0060 N.3    58  TRP58      -0.1227
      2  CA        -2.9190   37.0640   25.1630 C.3    58  TRP58       0.1737
      3  C         -4.2880   37.3190   24.5220 C.2    58  TRP58       0.2595
      4  O         -4.9070   36.3910   24.0020 O.2    58  TRP58      -0.2718
      5  CB        -3.1040   36.7420   26.6490 C.3    58  TRP58       0.0564
      6  CG        -3.8650   37.7880   27.4290 C.ar   58  TRP58       0.0003
      7  CD1       -3.3430   38.8830   28.0520 C.ar   58  TRP58       0.0946
      8  CD2       -5.2860   37.8710   27.5920 C.ar   58  TRP58       0.0152
      9  NE1       -4.3520   39.6510   28.5770 N.ar   58  TRP58      -0.2442
     10  CE2       -5.5550   39.0540   28.3100 C.ar   58  TRP58       0.0810
     11  CE3       -6.3600   37.0720   27.1900 C.ar   58  TRP58       0.0012
     12  CZ2       -6.8560   39.4550   28.6360 C.ar   58  TRP58       0.0191
     13  CZ3       -7.6590   37.4750   27.5130 C.ar   58  TRP58       0.0001
     14  CH2       -7.8890   38.6580   28.2300 C.ar   58  TRP58       0.0015
     15  N         -4.7500   38.5690   24.5610 N.am   59  TYR59      -0.1976
     16  CA        -6.0560   38.9640   24.0190 C.3    59  TYR59       0.1639
     17  C         -6.2620   38.7910   22.5130 C.2    59  TYR59       0.2290
     18  O         -7.3990   38.8130   22.0390 O.2    59  TYR59      -0.2864
     19  CB        -6.4170   40.4080   24.4400 C.3    59  TYR59       0.0560
     20  CG        -5.4410   41.4690   23.9720 C.ar   59  TYR59      -0.0198
     21  CD1       -4.2700   41.7100   24.6720 C.ar   59  TYR59      -0.0009
     22  CD2       -5.6580   42.1800   22.7840 C.ar   59  TYR59      -0.0009
     23  CE1       -3.3210   42.6190   24.1990 C.ar   59  TYR59       0.0417
     24  CE2       -4.7130   43.0980   22.2990 C.ar   59  TYR59       0.0417
     25  CZ        -3.5460   43.3030   23.0060 C.ar   59  TYR59       0.1957
     26  OH        -2.5640   44.1300   22.5090 O.3    59  TYR59      -0.2866
     27  N         -8.7230   36.0310   20.9970 N.3    62  TYR62      -0.1227
     28  CA       -10.1810   36.1370   21.0220 C.3    62  TYR62       0.1736
     29  C        -10.7130   37.0100   19.8750 C.2    62  TYR62       0.2595
     30  O        -11.8440   37.5180   19.9230 O.2    62  TYR62      -0.2718
     31  CB       -10.6600   36.6780   22.3790 C.3    62  TYR62       0.0548
     32  CG       -10.4700   35.7110   23.5140 C.ar   62  TYR62      -0.0200
     33  CD1       -9.2720   35.6660   24.2160 C.ar   62  TYR62      -0.0009
     34  CD2      -11.4510   34.7750   23.8230 C.ar   62  TYR62      -0.0009
     35  CE1       -9.0480   34.7010   25.1990 C.ar   62  TYR62       0.0417
     36  CE2      -11.2400   33.8090   24.7990 C.ar   62  TYR62       0.0417
     37  CZ       -10.0330   33.7770   25.4780 C.ar   62  TYR62       0.1957
     38  OH        -9.8120   32.8210   26.4430 O.3    62  TYR62      -0.2866
     39  N         -9.8920   37.1720   18.8420 N.am   63  GLN63      -0.1979
     40  CA       -10.2560   37.9520   17.6640 C.3    63  GLN63       0.1601
     41  C        -10.1240   37.0910   16.4170 C.2    63  GLN63       0.2287
     42  O         -9.1450   37.2090   15.6800 O.2    63  GLN63      -0.2864
     43  CB        -9.3430   39.1610   17.5500 C.3    63  GLN63       0.0394
     44  CG        -9.8270   40.3370   18.3630 C.3    63  GLN63       0.0908
     45  CD        -8.9250   41.5150   18.2400 C.2    63  GLN63       0.2608
     46  OE1       -8.5230   41.8930   17.1420 O.2    63  GLN63      -0.2717
     47  NE2       -8.5890   42.1080   19.3610 N.am   63  GLN63      -0.0878
     48  N        -18.3840   36.5470   17.8630 N.3   102  HIS102     -0.1241
     49  CA       -17.8080   37.6240   17.0800 C.3   102  HIS102      0.1621
     50  C        -16.5290   37.2150   16.3590 C.2   102  HIS102      0.2264
     51  O        -16.0390   36.1080   16.5340 O.2   102  HIS102     -0.2867
     52  CB       -17.4720   38.7710   18.0430 C.3   102  HIS102      0.0745
     53  CG       -16.5860   38.3490   19.1810 C.ar  102  HIS102      0.0817
     54  ND1      -17.0810   37.8910   20.3820 N.ar  102  HIS102     -0.2268
     55  CD2      -15.2380   38.2660   19.2780 C.ar  102  HIS102      0.1154
     56  CE1      -16.0800   37.5420   21.1660 C.ar  102  HIS102      0.1986
     57  NE2      -14.9520   37.7590   20.5190 N.ar  102  HIS102     -0.2212
     58  N        -12.0860   42.9200   15.1330 N.3   105  PHE105     -0.1241
     59  CA       -12.6830   44.2340   14.9300 C.3   105  PHE105      0.1605
     60  C        -12.1320   44.8040   13.6240 C.2   105  PHE105      0.2264
     61  O        -12.7300   45.6910   13.0000 O.2   105  PHE105     -0.2867
     62  CB       -12.3020   45.1660   16.0830 C.3   105  PHE105      0.0534
     63  CG       -10.8550   45.5710   16.0740 C.ar  105  PHE105     -0.0203
     64  CD1       -9.8940   44.7720   16.6670 C.ar  105  PHE105     -0.0042
     65  CD2      -10.4510   46.7330   15.4380 C.ar  105  PHE105     -0.0042
     66  CE1       -8.5490   45.1210   16.6230 C.ar  105  PHE105     -0.0003
     67  CE2       -9.1160   47.0840   15.3900 C.ar  105  PHE105     -0.0003
     68  CZ        -8.1620   46.2730   15.9850 C.ar  105  PHE105     -0.0000
     69  N        -20.7960   49.3830   18.9780 N.3   126  GLN126     -0.1245
     70  CA       -20.5710   49.0870   20.3890 C.3   126  GLN126      0.1566
     71  C        -21.8340   49.0590   21.2410 C.2   126  GLN126      0.2260
     72  O        -22.7200   49.9030   21.0760 O.2   126  GLN126     -0.2867
     73  CB       -19.5840   50.1000   20.9810 C.3   126  GLN126      0.0367
     74  CG       -18.2080   49.5370   21.3260 C.3   126  GLN126      0.0905
     75  CD       -17.9980   49.2870   22.8350 C.2   126  GLN126      0.2608
     76  OE1      -16.8560   49.2250   23.3070 O.2   126  GLN126     -0.2717
     77  NE2      -19.0970   49.1390   23.5920 N.am  126  GLN126     -0.0878
     78  N        -26.0840   47.9320   28.8160 N.3   130  TRP130     -0.1241
     79  CA       -25.9050   46.5430   29.2580 C.3   130  TRP130      0.1605
     80  C        -27.1030   45.8770   29.9390 C.2   130  TRP130      0.2264
     81  O        -27.1080   44.6680   30.1420 O.2   130  TRP130     -0.2867
     82  CB       -24.6620   46.4100   30.1330 C.3   130  TRP130      0.0550
     83  CG       -23.4030   46.5220   29.3400 C.ar  130  TRP130      0.0003
     84  CD1      -22.8600   47.6620   28.8050 C.ar  130  TRP130      0.0946
     85  CD2      -22.5380   45.4510   28.9650 C.ar  130  TRP130      0.0152
     86  NE1      -21.7070   47.3600   28.1200 N.ar  130  TRP130     -0.2442
     87  CE2      -21.4860   46.0110   28.2000 C.ar  130  TRP130      0.0810
     88  CE3      -22.5500   44.0660   29.1970 C.ar  130  TRP130      0.0012
     89  CZ2      -20.4510   45.2340   27.6660 C.ar  130  TRP130      0.0191
     90  CZ3      -21.5240   43.2930   28.6660 C.ar  130  TRP130      0.0001
     91  CH2      -20.4880   43.8810   27.9080 C.ar  130  TRP130      0.0015
     92  N        -19.7060   43.8770   20.9810 N.3   141  LEU141     -0.1231
     93  CA       -19.0110   43.7730   22.2490 C.3   141  LEU141      0.1693
     94  C        -17.5890   44.2100   21.9430 C.2   141  LEU141      0.2591
     95  O        -16.8980   43.5750   21.1540 O.2   141  LEU141     -0.2718
     96  CB       -19.0440   42.3090   22.7200 C.3   141  LEU141      0.0284
     97  CG       -18.5600   41.7640   24.0810 C.3   141  LEU141      0.0019
     98  CD1      -17.3690   40.8560   23.8700 C.3   141  LEU141      0.0001
     99  CD2      -18.2460   42.8500   25.0910 C.3   141  LEU141      0.0001
    100  N        -17.1890   45.3500   22.4930 N.am  142  LEU142     -0.1980
    101  CA       -15.8330   45.8670   22.2950 C.3   142  LEU142      0.1596
    102  C        -15.4870   46.2610   20.8660 C.2   142  LEU142      0.2287
    103  O        -14.3160   46.4660   20.5560 O.2   142  LEU142     -0.2864
    104  CB       -14.7960   44.8490   22.7800 C.3   142  LEU142      0.0297
    105  CG       -14.6360   44.6300   24.2790 C.3   142  LEU142      0.0022
    106  CD1      -13.6680   43.4840   24.5230 C.3   142  LEU142      0.0001
    107  CD2      -14.1240   45.9150   24.9140 C.3   142  LEU142      0.0001
    108  N        -15.9540   44.3320   18.3800 N.3   144  LEU144     -0.1245
    109  CA       -15.6670   43.1020   17.6770 C.3   144  LEU144      0.1561
    110  C        -16.9170   42.8500   16.8290 C.2   144  LEU144      0.2260
    111  O        -18.0480   42.9660   17.3210 O.2   144  LEU144     -0.2867
    112  CB       -15.4040   41.9800   18.6860 C.3   144  LEU144      0.0270
    113  CG       -14.1900   42.2450   19.5910 C.3   144  LEU144      0.0019
    114  CD1      -14.1700   41.3150   20.7680 C.3   144  LEU144      0.0001
    115  CD2      -12.9080   42.1190   18.8040 C.3   144  LEU144      0.0001
    116  N        -16.3380   25.5330   25.6310 N.3   174  ARG174     -0.1245
    117  CA       -16.5050   26.6260   26.5770 C.3   174  ARG174      0.1563
    118  C        -16.9010   27.7580   25.6440 C.2   174  ARG174      0.2260
    119  O        -16.0560   28.2770   24.9120 O.2   174  ARG174     -0.2867
    120  CB       -15.1800   26.9770   27.2660 C.3   174  ARG174      0.0307
    121  CG       -15.2510   28.2270   28.1480 C.3   174  ARG174      0.0489
    122  CD       -14.5790   29.4340   27.5140 C.3   174  ARG174      0.2205
    123  NE       -14.7840   30.6550   28.2930 N.pl3 174  ARG174     -0.0865
    124  CZ       -14.3160   31.8510   27.9480 C.cat 174  ARG174      0.5346
    125  NH1      -13.6100   31.9970   26.8360 N.pl3 174  ARG174      0.1354
    126  NH2      -14.5700   32.9130   28.7060 N.pl3 174  ARG174      0.1354
    127  N        -17.3880   31.1400   24.6550 N.3   176  ASP176     -0.1225
    128  CA       -16.9540   32.4760   24.9950 C.3   176  ASP176      0.1805
    129  C        -18.0910   33.4620   24.7370 C.2   176  ASP176      0.2597
    130  O        -18.8350   33.3260   23.7570 O.2   176  ASP176     -0.2718
    131  CB       -15.7560   32.8270   24.1300 C.3   176  ASP176      0.1424
    132  CG       -15.1860   34.1760   24.4450 C.2   176  ASP176      0.3668
    133  OD1      -14.5000   34.2570   25.4790 O.co2 176  ASP176     -0.2456
    134  OD2      -15.4040   35.1400   23.6590 O.co2 176  ASP176     -0.2456
    135  N        -18.2210   34.4470   25.6210 N.am  177  ALA177     -0.1979
    136  CA       -19.2460   35.4730   25.5140 C.3   177  ALA177      0.1597
    137  C        -20.6130   34.9300   25.1250 C.2   177  ALA177      0.2287
    138  O        -21.3700   35.6070   24.4120 O.2   177  ALA177     -0.2864
    139  CB       -18.8020   36.5590   24.5260 C.3   177  ALA177      0.0319
    140  N        -23.1950   34.8980   26.6110 N.3   179  LYS179     -0.1231
    141  CA       -24.2430   35.8020   27.0860 C.3   179  LYS179      0.1693
    142  C        -24.6800   36.7870   25.9830 C.2   179  LYS179      0.2592
    143  O        -25.7220   37.4370   26.0780 O.2   179  LYS179     -0.2718
    144  CB       -23.7130   36.5840   28.2940 C.3   179  LYS179      0.0285
    145  CG       -24.7410   37.4600   28.9700 C.3   179  LYS179      0.0035
    146  CD       -24.1750   38.0770   30.2310 C.3   179  LYS179      0.0206
    147  CE       -23.4850   39.3750   29.9670 C.3   179  LYS179      0.1093
    148  NZ       -22.8750   39.8570   31.2220 N.3   179  LYS179     -0.1314
    149  N        -23.8700   36.8910   24.9360 N.am  180  HIS180     -0.1976
    150  CA       -24.1550   37.8030   23.8480 C.3   180  HIS180      0.1656
    151  C        -24.7730   37.1580   22.6140 C.2   180  HIS180      0.2291
    152  O        -24.7340   37.7440   21.5220 O.2   180  HIS180     -0.2864
    153  CB       -22.8930   38.5740   23.4890 C.3   180  HIS180      0.0771
    154  CG       -22.2500   39.2320   24.6660 C.ar  180  HIS180      0.0820
    155  ND1      -22.5880   40.5010   25.0900 N.ar  180  HIS180     -0.2267
    156  CD2      -21.3010   38.7890   25.5270 C.ar  180  HIS180      0.1154
    157  CE1      -21.8790   40.8080   26.1590 C.ar  180  HIS180      0.1986
    158  NE2      -21.0910   39.7880   26.4440 N.ar  180  HIS180     -0.2212
    159  N        -19.5500   30.8770   29.0180 N.3   208  GLN208     -0.1245
    160  CA       -19.0980   31.9450   29.8930 C.3   208  GLN208      0.1566
    161  C        -20.2290   32.9550   29.8840 C.2   208  GLN208      0.2260
    162  O        -20.4930   33.6140   28.8690 O.2   208  GLN208     -0.2867
    163  CB       -17.8360   32.6010   29.3450 C.3   208  GLN208      0.0367
    164  CG       -17.2930   33.6960   30.2320 C.3   208  GLN208      0.0905
    165  CD       -16.9360   34.9390   29.4560 C.2   208  GLN208      0.2608
    166  OE1      -17.3850   35.1230   28.3250 O.2   208  GLN208     -0.2717
    167  NE2      -16.1140   35.7980   30.0480 N.am  208  GLN208     -0.0878
    168  N        -21.0760   35.8440   32.2930 N.3   210  LEU210     -0.1231
    169  CA       -20.7790   36.6940   33.4360 C.3   210  LEU210      0.1693
    170  C        -22.1020   37.2340   33.9710 C.2   210  LEU210      0.2592
    171  O        -22.8990   37.8070   33.2330 O.2   210  LEU210     -0.2718
    172  CB       -19.8200   37.8070   33.0340 C.3   210  LEU210      0.0284
    173  CG       -18.4840   37.2770   32.5120 C.3   210  LEU210      0.0019
    174  CD1      -17.4960   38.4060   32.2600 C.3   210  LEU210      0.0001
    175  CD2      -17.9060   36.3030   33.5350 C.3   210  LEU210      0.0001
    176  N        -22.3210   37.0600   35.2660 N.am  211  GLN211     -0.1966
    177  CA       -23.5730   37.4510   35.8820 C.3   211  GLN211      0.1733
    178  C        -23.9000   38.9190   36.0750 C.2   211  GLN211      0.2616
    179  O        -23.0520   39.7200   36.4550 O.2   211  GLN211     -0.2715
    180  CB       -23.7220   36.7410   37.2120 C.3   211  GLN211      0.0408
    181  CG       -23.7000   35.2550   37.1030 C.3   211  GLN211      0.0908
    182  CD       -23.7330   34.6140   38.4530 C.2   211  GLN211      0.2608
    183  OE1      -22.6970   34.4360   39.0830 O.2   211  GLN211     -0.2717
    184  NE2      -24.9220   34.2940   38.9270 N.am  211  GLN211     -0.0878
    185  N        -25.1730   39.2210   35.8500 N.am  212  ASP212     -0.1971
    186  CA       -25.7630   40.5400   36.0000 C.3   212  ASP212      0.1709
    187  C        -27.2640   40.3300   35.8240 C.2   212  ASP212      0.2293
    188  O        -27.7310   39.1970   35.9320 O.2   212  ASP212     -0.2864
    189  CB       -25.1890   41.5600   34.9960 C.3   212  ASP212      0.1436
    190  CG       -25.3930   41.1690   33.5300 C.2   212  ASP212      0.3671
    191  OD1      -26.4840   40.6990   33.1330 O.co2 212  ASP212     -0.2456
    192  OD2      -24.4460   41.3990   32.7530 O.co2 212  ASP212     -0.2456
    193  N         -9.2870   33.7090   33.5260 N.3   268  HIS268     -0.1226
    194  CA        -8.2010   34.3440   32.7990 C.3   268  HIS268      0.1752
    195  C         -8.4120   35.8490   32.7370 C.2   268  HIS268      0.2596
    196  O         -7.4410   36.5990   32.7080 O.2   268  HIS268     -0.2718
    197  CB        -7.9960   33.7360   31.3970 C.3   268  HIS268      0.0759
    198  CG        -9.1370   33.9600   30.4490 C.ar  268  HIS268      0.0818
    199  ND1      -10.2740   33.1810   30.4490 N.ar  268  HIS268     -0.2268
    200  CD2       -9.3080   34.8740   29.4650 C.ar  268  HIS268      0.1154
    201  CE1      -11.0980   33.6090   29.5110 C.ar  268  HIS268      0.1986
    202  NE2      -10.5360   34.6350   28.9020 N.ar  268  HIS268     -0.2212
    203  N         -9.6660   36.3030   32.7810 N.am  269  ASP269     -0.1974
    204  CA        -9.9410   37.7490   32.7410 C.3   269  ASP269      0.1709
    205  C         -9.6030   38.4940   34.0220 C.2   269  ASP269      0.2293
    206  O         -8.9320   39.5290   33.9780 O.2   269  ASP269     -0.2864
    207  CB       -11.4000   38.0310   32.4230 C.3   269  ASP269      0.1436
    208  CG       -11.7300   37.8040   30.9870 C.2   269  ASP269      0.3671
    209  OD1      -11.1700   38.5360   30.1320 O.co2 269  ASP269     -0.2456
    210  OD2      -12.5600   36.8960   30.7340 O.co2 269  ASP269     -0.2456
    211  N         -6.6980   40.7080   32.5440 N.3   273  ASN273     -0.1240
    212  CA        -7.1700   41.9990   32.0900 C.3   273  ASN273      0.1653
    213  C         -6.4600   43.1140   32.8430 C.2   273  ASN273      0.2266
    214  O         -5.9080   42.8930   33.9230 O.2   273  ASN273     -0.2867
    215  CB        -8.6840   42.0980   32.2150 C.3   273  ASN273      0.1155
    216  CG        -9.3900   41.6830   30.9380 C.2   273  ASN273      0.2627
    217  OD1       -8.8070   41.7240   29.8590 O.2   273  ASN273     -0.2716
    218  ND2      -10.6480   41.3070   31.0480 N.am  273  ASN273     -0.0877
@<TRIPOS>BOND
     1    61    60    2
     2    60    59    1
     3    59    58    1
     4    59    62    1
     5    67    65   ar
     6    67    68   ar
     7    65    63   ar
     8    42    41    2
     9    68    66   ar
    10    63    62    1
    11    63    64   ar
    12    50    51    2
    13    50    49    1
    14    41    40    1
    15    66    64   ar
    16   110   111    2
    17   110   109    1
    18    49    48    1
    19    49    52    1
    20    46    45    2
    21    43    40    1
    22    43    44    1
    23    40    39    1
    24   109   108    1
    25   109   112    1
    26    52    53    1
    27    45    44    1
    28    45    47   am
    29   112   113    1
    30   115   113    1
    31    39    29   am
    32    69    70    1
    33    53    55   ar
    34    53    54   ar
    35    55    57   ar
    36   113   114    1
    37    29    30    2
    38    29    28    1
    39    54    56   ar
    40    70    73    1
    41    70    71    1
    42    57    56   ar
    43   103   102    2
    44   102   101    1
    45    92    93    1
    46    73    74    1
    47    27    28    1
    48    28    31    1
    49    72    71    2
    50    95    94    2
    51    74    75    1
    52   152   151    2
    53    94    93    1
    54    94   100   am
    55    18    17    2
    56    93    96    1
    57   101   100    1
    58   101   104    1
    59    24    22   ar
    60    24    25   ar
    61    31    32    1
    62    26    25    1
    63    17    16    1
    64   151   150    1
    65    96    97    1
    66   104   105    1
    67    22    20   ar
    68    75    76    2
    69    75    77   am
    70    25    23   ar
    71   153   150    1
    72   153   154    1
    73    32    34   ar
    74    32    33   ar
    75   134   132   ar
    76   130   129    2
    77    34    36   ar
    78   150   149    1
    79    98    97    1
    80    20    19    1
    81    20    21   ar
    82     4     3    2
    83    16    19    1
    84    16    15    1
    85    97    99    1
    86   131   132    1
    87   131   128    1
    88    23    21   ar
    89    33    35   ar
    90   105   106    1
    91   105   107    1
    92   138   137    2
    93   132   133   ar
    94     3    15   am
    95     3     2    1
    96   139   136    1
    97   127   128    1
    98   154   155   ar
    99   154   156   ar
   100   129   128    1
   101   129   135   am
   102    36    37   ar
   103   119   118    2
   104   149   142   am
   105     1     2    1
   106   155   157   ar
   107   137   136    1
   108     2     5    1
   109    35    37   ar
   110    37    38    1
   111   136   135    1
   112   156   158   ar
   113   116   117    1
   114   118   117    1
   115   142   143    2
   116   142   141    1
   117   157   158   ar
   118   117   120    1
   119   140   141    1
   120     5     6    1
   121   125   124    1
   122   141   144    1
   123    11    13   ar
   124    11     8   ar
   125   120   121    1
   126     6     8   ar
   127     6     7   ar
   128    13    14   ar
   129   122   121    1
   130   122   123    1
   131     8    10   ar
   132    89    91   ar
   133    89    87   ar
   134    91    90   ar
   135   124   123    2
   136   124   126    1
   137     7     9   ar
   138    86    87   ar
   139    86    84   ar
   140    87    85   ar
   141    14    12   ar
   142   144   145    1
   143    10     9   ar
   144    10    12   ar
   145   166   165    2
   146    90    88   ar
   147    84    83   ar
   148    78    79    1
   149   162   161    2
   150   202   200   ar
   151   202   201   ar
   152    85    88   ar
   153    85    83   ar
   154   145   146    1
   155   159   160    1
   156    79    80    1
   157    79    82    1
   158    83    82    1
   159   163   160    1
   160   163   164    1
   161   165   167   am
   162   165   164    1
   163   200   198   ar
   164   201   199   ar
   165   217   216    2
   166   161   160    1
   167    80    81    2
   168   147   146    1
   169   147   148    1
   170   209   208   ar
   171   199   198   ar
   172   198   197    1
   173   210   208   ar
   174   216   218   am
   175   216   215    1
   176   208   207    1
   177   197   194    1
   178   212   215    1
   179   212   211    1
   180   212   213    1
   181   174   173    1
   182   168   169    1
   183   207   204    1
   184   173   172    1
   185   173   175    1
   186   196   195    2
   187   195   203   am
   188   195   194    1
   189   204   203    1
   190   204   205    1
   191   192   190   ar
   192   194   193    1
   193   213   214    2
   194   172   169    1
   195   191   190   ar
   196   171   170    2
   197   169   170    1
   198   190   189    1
   199   170   176   am
   200   206   205    2
   201   189   186    1
   202   176   177    1
   203   187   188    2
   204   187   186    1
   205   185   186    1
   206   185   178   am
   207   177   178    1
   208   177   180    1
   209   178   179    2
   210   181   180    1
   211   181   182    1
   212   182   184   am
   213   182   183    2
