@<TRIPOS>MOLECULE
tmp/1baiB00.pdb
 127 121 0 0 0
SMALL
GASTEIGER

@<TRIPOS>ATOM
      1  N         -9.6240   25.2480   27.0150 N.3    10  ARG10      -0.1245
      2  CA        -8.1780   25.1700   27.2120 C.3    10  ARG10       0.1563
      3  C         -7.2410   26.2530   26.5470 C.2    10  ARG10       0.2260
      4  O         -7.5850   26.8870   25.5320 O.2    10  ARG10      -0.2867
      5  CB        -7.6910   23.7690   26.7870 C.3    10  ARG10       0.0307
      6  CG        -8.4990   22.5910   27.2820 C.3    10  ARG10       0.0489
      7  CD        -8.3410   21.4290   26.3170 C.3    10  ARG10       0.2205
      8  NE        -9.0920   21.5860   25.0510 N.pl3  10  ARG10      -0.0865
      9  CZ        -8.9280   20.8300   23.9470 C.cat  10  ARG10       0.5346
     10  NH1       -8.0030   19.8620   23.9020 N.pl3  10  ARG10       0.1354
     11  NH2       -9.7970   20.9300   22.9340 N.pl3  10  ARG10       0.1354
     12  N         -1.2710   22.9070   23.5870 N.3    35  LEU35      -0.1245
     13  CA        -1.7750   23.4820   24.8150 C.3    35  LEU35       0.1561
     14  C         -0.6290   24.1670   25.6170 C.2    35  LEU35       0.2260
     15  O          0.5180   23.6830   25.6430 O.2    35  LEU35      -0.2867
     16  CB        -2.4280   22.3550   25.6030 C.3    35  LEU35       0.0270
     17  CG        -2.7810   22.5490   27.0630 C.3    35  LEU35       0.0019
     18  CD1       -4.0610   23.2230   27.2240 C.3    35  LEU35       0.0001
     19  CD2       -2.8620   21.2090   27.6940 C.3    35  LEU35       0.0001
     20  N          1.1990   24.8190   28.8320 N.3    37  ASP37      -0.1239
     21  CA         1.1710   23.9890   30.0180 C.3    37  ASP37       0.1674
     22  C          2.2230   24.3290   31.0500 C.2    37  ASP37       0.2266
     23  O          3.3640   23.9200   30.9290 O.2    37  ASP37      -0.2867
     24  CB         1.3360   22.5450   29.5240 C.3    37  ASP37       0.1410
     25  CG         0.8320   21.4990   30.4990 C.2    37  ASP37       0.3668
     26  OD1       -0.1100   21.7180   31.2840 O.co2  37  ASP37      -0.2456
     27  OD2        1.3590   20.3960   30.4500 O.co2  37  ASP37      -0.2456
     28  N          2.3840   23.1640   33.9770 N.3    39  GLY39      -0.1210
     29  CA         2.7020   22.0390   34.8550 C.3    39  GLY39       0.1956
     30  C          3.6630   21.0810   34.2100 C.2    39  GLY39       0.2612
     31  O          4.0990   20.0750   34.7990 O.2    39  GLY39      -0.2717
     32  N          3.9570   21.3940   32.9520 N.am   40  ALA40      -0.1965
     33  CA         4.8510   20.6040   32.1400 C.3    40  ALA40       0.1728
     34  C          6.1900   21.3720   31.9450 C.2    40  ALA40       0.2616
     35  O          6.2580   22.6060   31.6570 O.2    40  ALA40      -0.2715
     36  CB         4.1740   20.2490   30.8100 C.3    40  ALA40       0.0334
     37  N          7.2580   20.6160   32.1620 N.am   41  ASP41      -0.1957
     38  CA         8.6040   21.1390   32.0920 C.3    41  ASP41       0.1840
     39  C          9.2540   21.0800   30.7320 C.2    41  ASP41       0.2622
     40  O         10.2080   21.7830   30.4810 O.2    41  ASP41      -0.2715
     41  CB         9.4720   20.4150   33.1010 C.3    41  ASP41       0.1450
     42  CG        10.6410   21.2500   33.5240 C.2    41  ASP41       0.3671
     43  OD1       10.4310   22.1420   34.4000 O.co2  41  ASP41      -0.2456
     44  OD2       11.7540   21.0630   32.9500 O.co2  41  ASP41      -0.2456
     45  N          8.7230   20.2780   29.8300 N.am   42  ASP42      -0.1971
     46  CA         9.3370   20.1590   28.5430 C.3    42  ASP42       0.1709
     47  C          8.2710   20.2980   27.4840 C.2    42  ASP42       0.2293
     48  O          7.1010   20.2100   27.8110 O.2    42  ASP42      -0.2864
     49  CB         9.9640   18.7830   28.4380 C.3    42  ASP42       0.1436
     50  CG        10.9510   18.5070   29.5330 C.2    42  ASP42       0.3671
     51  OD1       11.9550   19.2550   29.6770 O.co2  42  ASP42      -0.2456
     52  OD2       10.7100   17.5060   30.2440 O.co2  42  ASP42      -0.2456
     53  N          6.4440   18.7350   24.4230 N.3    44  VAL44      -0.1245
     54  CA         6.3800   17.4160   23.8650 C.3    44  VAL44       0.1561
     55  C          5.3330   17.3960   22.7560 C.2    44  VAL44       0.2260
     56  O          4.1670   17.7770   22.9680 O.2    44  VAL44      -0.2867
     57  CB         6.0840   16.3260   24.9230 C.3    44  VAL44       0.0252
     58  CG1        6.2910   14.9220   24.3330 C.3    44  VAL44       0.0019
     59  CG2        6.9900   16.4840   26.0910 C.3    44  VAL44       0.0019
     60  N         11.7730    9.9830   29.9100 N.3    63  GLN63      -0.1231
     61  CA        10.9780   10.6490   30.8840 C.3    63  GLN63       0.1698
     62  C          9.5100   10.3630   30.6160 C.2    63  GLN63       0.2592
     63  O          9.0680    9.2180   30.4850 O.2    63  GLN63      -0.2718
     64  CB        11.2470   12.1640   30.8040 C.3    63  GLN63       0.0381
     65  CG        12.0010   12.7940   31.9810 C.3    63  GLN63       0.0905
     66  CD        11.1050   13.1500   33.1460 C.2    63  GLN63       0.2608
     67  OE1       10.1250   13.9220   33.0050 O.2    63  GLN63      -0.2717
     68  NE2       11.4300   12.5970   34.3200 N.am   63  GLN63      -0.0878
     69  N          8.7390   11.4370   30.6270 N.am   64  ILE64      -0.1966
     70  CA         7.3250   11.3490   30.3970 C.3    64  ILE64       0.1727
     71  C          6.6960   10.4910   31.4780 C.2    64  ILE64       0.2616
     72  O          6.5670    9.2680   31.3720 O.2    64  ILE64      -0.2715
     73  CB         7.0610   10.8930   28.9470 C.3    64  ILE64       0.0290
     74  CG1        8.0220   11.6560   28.0620 C.3    64  ILE64       0.0022
     75  CG2        5.6800   11.3530   28.4480 C.3    64  ILE64       0.0023
     76  CD1        8.1170   13.1050   28.4610 C.3    64  ILE64       0.0001
     77  N          6.5810   11.1540   32.6160 N.am   65  HIS65      -0.1959
     78  CA         5.9400   10.6310   33.7890 C.3    65  HIS65       0.1787
     79  C          4.8880   11.7450   33.9220 C.2    65  HIS65       0.2621
     80  O          5.0930   12.8730   33.4450 O.2    65  HIS65      -0.2715
     81  CB         6.8640   10.5600   35.0810 C.3    65  HIS65       0.0785
     82  CG         7.9840    9.5450   35.0060 C.ar   65  HIS65       0.0821
     83  ND1        7.7550    8.1920   34.8680 N.ar   65  HIS65      -0.2267
     84  CD2        9.3300    9.7090   34.8700 C.ar   65  HIS65       0.1154
     85  CE1        8.9020    7.5750   34.6210 C.ar   65  HIS65       0.1986
     86  NE2        9.8740    8.4720   34.6160 N.ar   65  HIS65      -0.2212
     87  N          3.7280   11.3800   34.4410 N.am   66  GLY66      -0.1940
     88  CA         2.6520   12.3150   34.6660 C.3    66  GLY66       0.2014
     89  C          1.6860   11.4390   35.4190 C.2    66  GLY66       0.2638
     90  O          2.0260   10.2830   35.6690 O.2    66  GLY66      -0.2714
     91  N          0.5170   11.9490   35.8280 N.am   67  ILE67      -0.1977
     92  CA        -0.4600   11.0680   36.5060 C.3    67  ILE67       0.1596
     93  C         -0.9480   10.0890   35.4510 C.2    67  ILE67       0.2287
     94  O         -1.7410   10.4090   34.5560 O.2    67  ILE67      -0.2864
     95  CB        -1.6860   11.7940   37.1860 C.3    67  ILE67       0.0276
     96  CG1       -2.6340   12.4020   36.1610 C.3    67  ILE67       0.0022
     97  CG2       -1.2070   12.8230   38.1960 C.3    67  ILE67       0.0022
     98  CD1       -2.0460   13.6070   35.4530 C.3    67  ILE67       0.0001
     99  N          1.8740   11.4060   23.3020 N.3   104  THR104     -0.1204
    100  CA         1.1540   12.3410   24.1350 C.3   104  THR104      0.1979
    101  C         -0.2230   12.5360   23.5190 C.2   104  THR104      0.2460
    102  O         -0.3230   12.7550   22.3000 O.2   104  THR104     -0.2732
    103  CB         1.7890   13.7130   24.0020 C.3   104  THR104      0.1783
    104  OG1        3.0470   13.5670   23.3370 O.3   104  THR104     -0.2211
    105  CG2        1.9570   14.3760   25.3390 C.3   104  THR104      0.0376
    106  N         -1.2940   12.5840   24.3530 N.am  105  PRO105     -0.2717
    107  CA        -2.6300   12.7860   23.7720 C.3   105  PRO105      0.1535
    108  C         -2.6940   14.1770   23.1060 C.2   105  PRO105      0.2598
    109  O         -3.5220   14.4290   22.2150 O.2   105  PRO105     -0.2715
    110  CB        -3.5520   12.6880   24.9930 C.3   105  PRO105      0.0310
    111  CG        -2.6340   13.1930   26.1290 C.3   105  PRO105      0.0237
    112  CD        -1.3600   12.4830   25.8270 C.3   105  PRO105      0.0939
    113  N         -1.8150   15.0780   23.5210 N.am  106  VAL106     -0.1978
    114  CA        -1.8150   16.4040   22.9160 C.3   106  VAL106      0.1596
    115  C         -0.3650   16.9420   22.8510 C.2   106  VAL106      0.2287
    116  O          0.5320   16.3590   23.4850 O.2   106  VAL106     -0.2864
    117  CB        -2.7270   17.3290   23.7300 C.3   106  VAL106      0.0276
    118  CG1       -2.3630   17.2390   25.2120 C.3   106  VAL106      0.0022
    119  CG2       -2.6470   18.7400   23.1950 C.3   106  VAL106      0.0022
    120  N          2.3420   19.5610   23.8320 N.3   108  ILE108     -0.1245
    121  CA         2.4680   20.4420   24.9770 C.3   108  ILE108      0.1561
    122  C          3.5160   21.5200   24.8440 C.2   108  ILE108      0.2260
    123  O          4.6410   21.2470   24.3850 O.2   108  ILE108     -0.2867
    124  CB         2.7500   19.5640   26.2420 C.3   108  ILE108      0.0252
    125  CG1        1.4430   18.8870   26.6800 C.3   108  ILE108      0.0019
    126  CG2        3.3790   20.3500   27.3370 C.3   108  ILE108      0.0019
    127  CD1        1.5810   17.3970   26.9120 C.3   108  ILE108      0.0001
@<TRIPOS>BOND
     1   109   108    2
     2   102   101    2
     3    55    56    2
     4    55    54    1
     5   115   114    1
     6   115   116    2
     7   114   113    1
     8   114   117    1
     9    11     9    1
    10   108   113   am
    11   108   107    1
    12   119   117    1
    13    99   100    1
    14   104   103    1
    15   101   100    1
    16   101   106   am
    17    12    13    1
    18   117   118    1
    19   107   106    1
    20   107   110    1
    21   120   121    1
    22    54    53    1
    23    54    57    1
    24    10     9    1
    25     9     8    2
    26   103   100    1
    27   103   105    1
    28    58    57    1
    29   106   112    1
    30   123   122    2
    31    13    16    1
    32    13    14    1
    33   122   121    1
    34    57    59    1
    35   121   124    1
    36   110   111    1
    37     8     7    1
    38     4     3    2
    39    16    17    1
    40    14    15    2
    41   112   111    1
    42   124   125    1
    43   124   126    1
    44     7     6    1
    45     3     2    1
    46   125   127    1
    47     5     2    1
    48     5     6    1
    49     1     2    1
    50    17    18    1
    51    17    19    1
    52    47    48    2
    53    47    46    1
    54    74    76    1
    55    74    73    1
    56    49    46    1
    57    49    50    1
    58    75    73    1
    59    46    45    1
    60    20    21    1
    61    73    70    1
    62    24    21    1
    63    24    25    1
    64    50    51   ar
    65    50    52   ar
    66    45    39   am
    67    60    61    1
    68    21    22    1
    69    70    69    1
    70    70    71    1
    71    27    25   ar
    72    40    39    2
    73    63    62    2
    74    25    26   ar
    75    62    69   am
    76    62    61    1
    77    39    38    1
    78    64    61    1
    79    64    65    1
    80    36    33    1
    81    23    22    2
    82    72    71    2
    83    71    77   am
    84    35    34    2
    85    34    33    1
    86    34    37   am
    87    65    66    1
    88    38    37    1
    89    38    41    1
    90    33    32    1
    91    77    78    1
    92    44    42   ar
    93    32    30   am
    94    67    66    2
    95    41    42    1
    96    66    68   am
    97    80    79    2
    98    42    43   ar
    99    78    79    1
   100    78    81    1
   101    79    87   am
   102    28    29    1
   103    30    31    2
   104    30    29    1
   105    87    88    1
   106    94    93    2
   107    86    85   ar
   108    86    84   ar
   109    85    83   ar
   110    88    89    1
   111    83    82   ar
   112    84    82   ar
   113    82    81    1
   114    89    90    2
   115    89    91   am
   116    93    92    1
   117    98    96    1
   118    91    92    1
   119    96    95    1
   120    92    95    1
   121    95    97    1
