@<TRIPOS>MOLECULE
tmp/1bavC00.pdb
 152 142 0 0 0
SMALL
GASTEIGER

@<TRIPOS>ATOM
      1  N         74.6340   21.4280   17.6220 N.3    69  HIS69      -0.1241
      2  CA        75.2480   22.0520   18.8000 C.3    69  HIS69       0.1621
      3  C         74.5010   21.3500   19.9430 C.2    69  HIS69       0.2264
      4  O         73.3250   21.6380   20.1900 O.2    69  HIS69      -0.2867
      5  CB        74.9640   23.5590   18.8280 C.3    69  HIS69       0.0745
      6  CG        75.8230   24.3630   17.8990 C.ar   69  HIS69       0.0817
      7  ND1       75.5320   25.6700   17.5540 N.ar   69  HIS69      -0.2268
      8  CD2       76.9590   24.0430   17.2390 C.ar   69  HIS69       0.1154
      9  CE1       76.4460   26.1070   16.7050 C.ar   69  HIS69       0.1986
     10  NE2       77.3210   25.1420   16.5010 N.ar   69  HIS69      -0.2212
     11  N         71.7300   22.5460   22.6800 N.3    72  GLU72      -0.1245
     12  CA        70.4700   23.0770   22.1800 C.3    72  GLU72       0.1567
     13  C         69.3570   22.0360   22.2460 C.2    72  GLU72       0.2260
     14  O         68.7710   21.6470   21.2260 O.2    72  GLU72      -0.2867
     15  CB        70.6990   23.6200   20.7740 C.3    72  GLU72       0.0388
     16  CG        71.6020   24.8540   20.8260 C.3    72  GLU72       0.1160
     17  CD        72.2010   25.2480   19.5120 C.2    72  GLU72       0.3649
     18  OE1       71.7400   24.7880   18.4520 O.co2  72  GLU72      -0.2457
     19  OE2       73.1590   26.0360   19.5480 O.co2  72  GLU72      -0.2457
     20  N         78.7350   22.2960   23.7680 N.3   127  ARG127     -0.1245
     21  CA        78.1460   22.4720   22.4600 C.3   127  ARG127      0.1563
     22  C         78.8820   21.8310   21.2800 C.2   127  ARG127      0.2260
     23  O         78.2520   21.4210   20.3080 O.2   127  ARG127     -0.2867
     24  CB        77.9510   23.9590   22.2310 C.3   127  ARG127      0.0307
     25  CG        79.2200   24.6990   22.0290 C.3   127  ARG127      0.0489
     26  CD        79.3710   24.9760   20.5740 C.3   127  ARG127      0.2205
     27  NE        78.3260   25.8860   20.1570 N.pl3 127  ARG127     -0.0865
     28  CZ        78.5410   26.9840   19.4560 C.cat 127  ARG127      0.5346
     29  NH1       79.7670   27.2900   19.0820 N.pl3 127  ARG127      0.1354
     30  NH2       77.5320   27.7960   19.1660 N.pl3 127  ARG127      0.1354
     31  N         79.2600   23.6160   13.4360 N.3   144  ASN144     -0.1225
     32  CA        78.5930   24.5210   12.5050 C.3   144  ASN144      0.1785
     33  C         79.5560   25.5940   11.9960 C.2   144  ASN144      0.2597
     34  O         79.1440   26.5790   11.3930 O.2   144  ASN144     -0.2718
     35  CB        77.3070   25.1410   13.0710 C.3   144  ASN144      0.1169
     36  CG        76.3780   25.6420   11.9640 C.2   144  ASN144      0.2627
     37  OD1       76.4180   25.1370   10.8370 O.2   144  ASN144     -0.2716
     38  ND2       75.5230   26.6070   12.2830 N.am  144  ASN144     -0.0877
     39  N         80.8400   25.4260   12.3060 N.am  145  ARG145     -0.1979
     40  CA        81.8850   26.3200   11.8000 C.3   145  ARG145      0.1597
     41  C         82.9020   25.4180   11.0620 C.2   145  ARG145      0.2287
     42  O         83.9410   25.8920   10.5940 O.2   145  ARG145     -0.2864
     43  CB        82.6110   27.0350   12.9550 C.3   145  ARG145      0.0334
     44  CG        81.7720   27.9660   13.8180 C.3   145  ARG145      0.0492
     45  CD        81.3270   29.2130   13.0880 C.3   145  ARG145      0.2205
     46  NE        80.5280   30.0800   13.9550 N.pl3 145  ARG145     -0.0865
     47  CZ        79.2120   29.9550   14.1190 C.cat 145  ARG145      0.5346
     48  NH1       78.5410   29.0000   13.4760 N.pl3 145  ARG145      0.1354
     49  NH2       78.5570   30.7830   14.9250 N.pl3 145  ARG145      0.1354
     50  N         68.5620   25.0240   15.2650 N.3   196  HIS196     -0.1226
     51  CA        69.3590   25.4120   16.4260 C.3   196  HIS196      0.1752
     52  C         68.4690   26.2320   17.3470 C.2   196  HIS196      0.2596
     53  O         67.2650   26.3790   17.1400 O.2   196  HIS196     -0.2718
     54  CB        70.4610   26.4060   15.9880 C.3   196  HIS196      0.0759
     55  CG        71.5290   25.8240   15.1170 C.ar  196  HIS196      0.0818
     56  ND1       72.7630   25.4380   15.6090 N.ar  196  HIS196     -0.2268
     57  CD2       71.5780   25.6330   13.7790 C.ar  196  HIS196      0.1154
     58  CE1       73.5320   25.0650   14.6010 C.ar  196  HIS196      0.1986
     59  NE2       72.8350   25.1680   13.4840 N.ar  196  HIS196     -0.2212
     60  N         69.0710   26.6790   18.4370 N.am  197  SER197     -0.1952
     61  CA        68.4270   27.6260   19.3390 C.3   197  SER197      0.1924
     62  C         69.5690   28.4820   19.8340 C.2   197  SER197      0.2314
     63  O         70.7330   28.1280   19.5930 O.2   197  SER197     -0.2863
     64  CB        67.6670   26.9860   20.5020 C.3   197  SER197      0.2116
     65  OG        68.5330   26.3370   21.3980 O.3   197  SER197     -0.2180
     66  N         67.0040   32.1180    9.0640 N.3   203  LEU203     -0.1245
     67  CA        68.1510   32.5600    8.2790 C.3   203  LEU203      0.1561
     68  C         68.3940   31.8040    6.9770 C.2   203  LEU203      0.2260
     69  O         68.0880   30.6230    6.8660 O.2   203  LEU203     -0.2867
     70  CB        69.4260   32.4320    9.1150 C.3   203  LEU203      0.0270
     71  CG        69.5680   33.0790   10.4810 C.3   203  LEU203      0.0019
     72  CD1       69.4420   34.5990   10.3380 C.3   203  LEU203      0.0001
     73  CD2       68.5810   32.5050   11.4640 C.3   203  LEU203      0.0001
     74  N         76.5630   33.5580    5.3490 N.3   207  GLY207     -0.1225
     75  CA        77.1150   33.8640    6.6180 C.3   207  GLY207      0.1811
     76  C         78.5910   34.2310    6.5310 C.2   207  GLY207      0.2280
     77  O         79.0790   35.0020    7.3550 O.2   207  GLY207     -0.2866
     78  N         72.2990   35.3790    7.1420 N.3   243  ILE243     -0.1245
     79  CA        73.0200   35.1670    8.3920 C.3   243  ILE243      0.1561
     80  C         73.8890   36.3710    8.7700 C.2   243  ILE243      0.2260
     81  O         73.8260   36.8510    9.8940 O.2   243  ILE243     -0.2867
     82  CB        73.9360   33.9150    8.3080 C.3   243  ILE243      0.0252
     83  CG1       73.0950   32.6540    8.0710 C.3   243  ILE243      0.0019
     84  CG2       74.7960   33.7890    9.5850 C.3   243  ILE243      0.0019
     85  CD1       73.8760   31.5250    7.3870 C.3   243  ILE243      0.0001
     86  N         72.2880   38.0520   12.0900 N.3   247  ILE247     -0.1231
     87  CA        72.7680   37.4510   13.3520 C.3   247  ILE247      0.1692
     88  C         74.1610   38.0020   13.5540 C.2   247  ILE247      0.2592
     89  O         74.3970   38.7840   14.4620 O.2   247  ILE247     -0.2718
     90  CB        72.9640   35.9080   13.3300 C.3   247  ILE247      0.0266
     91  CG1       71.8420   35.2080   12.5870 C.3   247  ILE247      0.0019
     92  CG2       73.0400   35.3730   14.7680 C.3   247  ILE247      0.0020
     93  CD1       71.9370   33.6970   12.6790 C.3   247  ILE247      0.0001
     94  N         75.0850   37.5090   12.7260 N.am  248  TYR248     -0.1976
     95  CA        76.4970   37.8870   12.7360 C.3   248  TYR248      0.1639
     96  C         77.2720   37.1550   11.6430 C.2   248  TYR248      0.2290
     97  O         76.7520   36.2280   11.0200 O.2   248  TYR248     -0.2864
     98  CB        77.1560   37.5940   14.1010 C.3   248  TYR248      0.0560
     99  CG        76.8140   36.2610   14.7470 C.ar  248  TYR248     -0.0198
    100  CD1       76.7570   35.0700   14.0010 C.ar  248  TYR248     -0.0009
    101  CD2       76.4920   36.2080   16.1090 C.ar  248  TYR248     -0.0009
    102  CE1       76.3760   33.8630   14.6030 C.ar  248  TYR248      0.0417
    103  CE2       76.1120   35.0250   16.7240 C.ar  248  TYR248      0.0417
    104  CZ        76.0470   33.8530   15.9740 C.ar  248  TYR248      0.1957
    105  OH        75.6000   32.7010   16.5920 O.3   248  TYR248     -0.2866
    106  N         79.6570   34.5340   10.1560 N.3   250  ALA250     -0.1245
    107  CA        79.9120   33.1590   10.5880 C.3   250  ALA250      0.1562
    108  C         80.4240   32.3870    9.3770 C.2   250  ALA250      0.2260
    109  O         79.8250   32.4380    8.3010 O.2   250  ALA250     -0.2867
    110  CB        78.6320   32.5250   11.1320 C.3   250  ALA250      0.0290
    111  N         79.5850   27.5240    7.9320 N.3   253  GLY253     -0.1210
    112  CA        78.2250   27.1620    8.3230 C.3   253  GLY253      0.1956
    113  C         77.5730   26.1920    7.3550 C.2   253  GLY253      0.2613
    114  O         77.7290   26.3410    6.1370 O.2   253  GLY253     -0.2717
    115  N         76.7390   25.2910    7.8680 N.am  254  SER254     -0.1938
    116  CA        76.1230   24.2530    7.0380 C.3   254  SER254      0.2055
    117  C         75.2530   24.6780    5.8630 C.2   254  SER254      0.2643
    118  O         75.3240   24.0860    4.7730 O.2   254  SER254     -0.2714
    119  CB        75.3770   23.2260    7.9000 C.3   254  SER254      0.2130
    120  OG        74.2260   23.7410    8.4900 O.3   254  SER254     -0.2179
    121  N         74.4430   25.7070    6.0880 N.am  255  ILE255     -0.1963
    122  CA        73.5230   26.2540    5.0960 C.3   255  ILE255      0.1727
    123  C         74.2610   26.9550    3.9350 C.2   255  ILE255      0.2616
    124  O         73.8370   26.8460    2.7800 O.2   255  ILE255     -0.2715
    125  CB        72.4930   27.1230    5.8550 C.3   255  ILE255      0.0290
    126  CG1       71.2640   26.2800    6.1580 C.3   255  ILE255      0.0022
    127  CG2       72.2150   28.4430    5.1870 C.3   255  ILE255      0.0023
    128  CD1       71.5370   25.0420    6.9440 C.3   255  ILE255      0.0001
    129  N         75.4060   27.5820    4.2290 N.am  256  ASP256     -0.1971
    130  CA        76.2140   28.2340    3.1970 C.3   256  ASP256      0.1709
    131  C         76.7830   27.1320    2.3120 C.2   256  ASP256      0.2293
    132  O         76.7490   27.2260    1.0830 O.2   256  ASP256     -0.2864
    133  CB        77.3530   29.0430    3.8050 C.3   256  ASP256      0.1436
    134  CG        76.8880   30.3370    4.4410 C.2   256  ASP256      0.3671
    135  OD1       75.6650   30.5570    4.5720 O.co2 256  ASP256     -0.2456
    136  OD2       77.7750   31.1370    4.8040 O.co2 256  ASP256     -0.2456
    137  N         68.2120   27.9970    8.1630 N.3   268  THR268     -0.1218
    138  CA        68.5080   27.5470    9.5210 C.3   268  THR268      0.1862
    139  C         67.4890   28.2270   10.4300 C.2   268  THR268      0.2287
    140  O         67.1540   29.3970   10.2240 O.2   268  THR268     -0.2866
    141  CB        69.9360   27.9460    9.9910 C.3   268  THR268      0.1770
    142  OG1       70.9040   27.1260    9.3330 O.3   268  THR268     -0.2211
    143  CG2       70.0760   27.7710   11.4960 C.3   268  THR268      0.0375
    144  N         66.6550   29.2830   14.3550 N.3   270  GLU270     -0.1245
    145  CA        67.1410   29.4640   15.7290 C.3   270  GLU270      0.1567
    146  C         65.8160   29.5540   16.4950 C.2   270  GLU270      0.2260
    147  O         65.0680   30.5380   16.3470 O.2   270  GLU270     -0.2867
    148  CB        67.8830   30.7910   15.9050 C.3   270  GLU270      0.0388
    149  CG        69.1050   31.0140   15.0000 C.3   270  GLU270      0.1160
    150  CD        70.3450   30.2100   15.3820 C.2   270  GLU270      0.3649
    151  OE1       70.5070   29.7310   16.5060 O.co2 270  GLU270     -0.2457
    152  OE2       71.2550   30.0710   14.4380 O.co2 270  GLU270     -0.2457
@<TRIPOS>BOND
     1   132   131    2
     2   131   130    1
     3   124   123    2
     4   130   133    1
     5   130   129    1
     6   133   134    1
     7   123   129   am
     8   123   122    1
     9   134   135   ar
    10   134   136   ar
    11   118   117    2
    12   122   125    1
    13   122   121    1
    14   127   125    1
    15    74    75    1
    16   125   126    1
    17   117   121   am
    18   117   116    1
    19   114   113    2
    20   126   128    1
    21    76    75    1
    22    76    77    2
    23    69    68    2
    24    68    67    1
    25   116   115    1
    26   116   119    1
    27    78    79    1
    28   113   115   am
    29   113   112    1
    30    85    83    1
    31   119   120    1
    32   111   112    1
    33    83    82    1
    34   137   138    1
    35    67    66    1
    36    67    70    1
    37   109   108    2
    38    82    79    1
    39    82    84    1
    40    79    80    1
    41    80    81    2
    42    70    71    1
    43   142   141    1
    44   108   107    1
    45   138   141    1
    46   138   139    1
    47   141   143    1
    48   106   107    1
    49   140   139    2
    50    72    71    1
    51    71    73    1
    52   107   110    1
    53    42    41    2
    54    37    36    2
    55    97    96    2
    56    41    40    1
    57    34    33    2
    58    96    95    1
    59    40    39    1
    60    40    43    1
    61    36    38   am
    62    36    35    1
    63    33    39   am
    64    33    32    1
    65    86    87    1
    66    32    35    1
    67    32    31    1
    68    91    93    1
    69    91    90    1
    70    94    95    1
    71    94    88   am
    72    95    98    1
    73    43    44    1
    74    45    44    1
    75    45    46    1
    76    90    87    1
    77    90    92    1
    78    87    88    1
    79    48    47    1
    80    59    57   ar
    81    59    58   ar
    82    88    89    2
    83    57    55   ar
    84    46    47    2
    85   100   102   ar
    86   100    99   ar
    87    98    99    1
    88    47    49    1
    89   144   145    1
    90   152   150   ar
    91    58    56   ar
    92   102   104   ar
    93    99   101   ar
    94   149   150    1
    95   149   148    1
    96    55    56   ar
    97    55    54    1
    98    50    51    1
    99   150   151   ar
   100   145   148    1
   101   145   146    1
   102   104   105    1
   103   104   103   ar
   104    54    51    1
   105   101   103   ar
   106   147   146    2
   107    51    52    1
   108    10     9   ar
   109    10     8   ar
   110     9     7   ar
   111    53    52    2
   112     8     6   ar
   113    52    60   am
   114     7     6   ar
   115     1     2    1
   116     6     5    1
   117    60    61    1
   118    18    17   ar
   119     2     5    1
   120     2     3    1
   121    29    28    1
   122    30    28    1
   123    61    62    1
   124    61    64    1
   125    28    27    2
   126    17    19   ar
   127    17    16    1
   128    63    62    2
   129     3     4    2
   130    27    26    1
   131    23    22    2
   132    64    65    1
   133    26    25    1
   134    15    16    1
   135    15    12    1
   136    14    13    2
   137    22    21    1
   138    25    24    1
   139    12    13    1
   140    12    11    1
   141    24    21    1
   142    21    20    1
