@<TRIPOS>MOLECULE
tmp/1bb0B01.pdb
 224 225 0 0 0
SMALL
GASTEIGER

@<TRIPOS>ATOM
      1  N         14.4700   -7.9590    9.2630 N.3    26  LEU26      -0.1231
      2  CA        15.4810   -8.2570   10.2810 C.3    26  LEU26       0.1693
      3  C         15.0120   -7.8920   11.6940 C.2    26  LEU26       0.2592
      4  O         14.9190   -8.7750   12.5650 O.2    26  LEU26      -0.2718
      5  CB        16.7380   -7.5190    9.8240 C.3    26  LEU26       0.0284
      6  CG        17.8590   -8.2260    9.0910 C.3    26  LEU26       0.0019
      7  CD1       17.4320   -9.3650    8.1600 C.3    26  LEU26       0.0001
      8  CD2       18.6300   -7.1660    8.2940 C.3    26  LEU26       0.0001
      9  N         14.4790   -6.7100   11.9890 N.am   27  CYS27      -0.1970
     10  CA        14.1780   -6.2590   13.3700 C.3    27  CYS27       0.1712
     11  C         13.5030   -4.8860   13.3190 C.2    27  CYS27       0.2296
     12  O         13.4870   -4.3180   12.2220 O.2    27  CYS27      -0.2864
     13  CB        15.5690   -6.0010   13.9530 C.3    27  CYS27       0.0983
     14  SG        16.6280   -7.2880   14.6840 S.3    27  CYS27      -0.0798
     15  N         22.5380   -6.9970   18.3970 N.3    42  HIS42      -0.1241
     16  CA        22.4500   -8.4020   17.9730 C.3    42  HIS42       0.1621
     17  C         21.6890   -8.5300   16.6600 C.2    42  HIS42       0.2264
     18  O         21.6430   -9.6560   16.1400 O.2    42  HIS42      -0.2867
     19  CB        21.8570   -9.2780   19.0710 C.3    42  HIS42       0.0745
     20  CG        20.3730   -9.3420   19.1250 C.ar   42  HIS42       0.0817
     21  ND1       19.5970   -8.5840   19.9780 N.ar   42  HIS42      -0.2268
     22  CD2       19.5180  -10.0850   18.3680 C.ar   42  HIS42       0.1154
     23  CE1       18.3300   -8.9470   19.8560 C.ar   42  HIS42       0.1986
     24  NE2       18.2590   -9.7800   18.8320 N.ar   42  HIS42      -0.2212
     25  N         25.8400  -11.2640   15.4390 N.3    46  TYR46      -0.1241
     26  CA        25.6260  -12.4050   16.3570 C.3    46  TYR46       0.1605
     27  C         26.4060  -13.6030   15.7950 C.2    46  TYR46       0.2264
     28  O         25.8060  -14.4250   15.0910 O.2    46  TYR46      -0.2867
     29  CB        24.1440  -12.7030   16.5580 C.3    46  TYR46       0.0534
     30  CG        23.9230  -13.5700   17.7690 C.ar   46  TYR46      -0.0201
     31  CD1       24.4860  -13.1340   18.9700 C.ar   46  TYR46      -0.0009
     32  CD2       23.3210  -14.8330   17.7060 C.ar   46  TYR46      -0.0009
     33  CE1       24.3420  -13.8880   20.1350 C.ar   46  TYR46       0.0417
     34  CE2       23.1680  -15.6110   18.8570 C.ar   46  TYR46       0.0417
     35  CZ        23.7040  -15.1310   20.0520 C.ar   46  TYR46       0.1957
     36  OH        23.6650  -15.9010   21.1840 O.3    46  TYR46      -0.2866
     37  N         25.4250  -17.3080   15.3740 N.3    49  TRP49      -0.1241
     38  CA        24.4400  -17.6250   14.3380 C.3    49  TRP49       0.1605
     39  C         24.9930  -17.2350   12.9710 C.2    49  TRP49       0.2264
     40  O         24.2370  -17.2350   11.9930 O.2    49  TRP49      -0.2867
     41  CB        23.0430  -17.0550   14.5360 C.3    49  TRP49       0.0550
     42  CG        22.3080  -17.6380   15.6960 C.ar   49  TRP49       0.0003
     43  CD1       22.6620  -18.7440   16.4130 C.ar   49  TRP49       0.0946
     44  CD2       21.0870  -17.1660   16.2950 C.ar   49  TRP49       0.0152
     45  NE1       21.7770  -18.9650   17.4460 N.ar   49  TRP49      -0.2442
     46  CE2       20.7710  -18.0440   17.3600 C.ar   49  TRP49       0.0810
     47  CE3       20.2660  -16.0750   16.0350 C.ar   49  TRP49       0.0012
     48  CZ2       19.6750  -17.8590   18.1930 C.ar   49  TRP49       0.0191
     49  CZ3       19.1180  -15.9520   16.8010 C.ar   49  TRP49       0.0001
     50  CH2       18.7940  -16.8390   17.8280 C.ar   49  TRP49       0.0015
     51  N         28.1680  -10.4180   23.1530 N.3    91  TRP91      -0.1241
     52  CA        27.4740  -11.4340   22.3600 C.3    91  TRP91       0.1605
     53  C         27.8760  -12.8680   22.7570 C.2    91  TRP91       0.2264
     54  O         27.0850  -13.8100   22.5090 O.2    91  TRP91      -0.2867
     55  CB        27.7310  -11.2650   20.8790 C.3    91  TRP91       0.0550
     56  CG        29.1450  -11.2600   20.4440 C.ar   91  TRP91       0.0003
     57  CD1       29.8850  -10.1470   20.1330 C.ar   91  TRP91       0.0946
     58  CD2       30.0090  -12.3990   20.2270 C.ar   91  TRP91       0.0152
     59  NE1       31.1660  -10.5140   19.7740 N.ar   91  TRP91      -0.2442
     60  CE2       31.2680  -11.8850   19.8260 C.ar   91  TRP91       0.0810
     61  CE3       29.8170  -13.7830   20.3190 C.ar   91  TRP91       0.0012
     62  CZ2       32.3530  -12.7180   19.5070 C.ar   91  TRP91       0.0191
     63  CZ3       30.8980  -14.6080   19.9980 C.ar   91  TRP91       0.0001
     64  CH2       32.1050  -14.0950   19.5240 C.ar   91  TRP91       0.0015
     65  N         28.0170  -13.8760   25.8910 N.3    93  GLU93      -0.1182
     66  CA        27.3510  -14.4520   27.0660 C.3    93  GLU93       0.1915
     67  C         25.9180  -14.0110   27.2410 C.2    93  GLU93       0.2634
     68  O         25.0510  -14.9120   27.2440 O.2    93  GLU93      -0.2714
     69  CB        28.1790  -14.0920   28.3000 C.2    93  GLU93       0.0085
     70  CG        27.6990  -14.5090   29.6760 C.2    93  GLU93       0.0835
     71  CD        28.3210  -13.7660   30.8360 C.2    93  GLU93       0.3877
     72  OE1       29.3000  -13.0220   30.6820 O.co2  93  GLU93      -0.2406
     73  OE2       27.6800  -13.9930   31.9060 O.co2  93  GLU93      -0.2406
     74  N         25.6710  -12.7350   27.5110 N.am   94  ASN94      -0.1958
     75  CA        24.2890  -12.3580   27.8480 C.3    94  ASN94       0.1819
     76  C         23.6970  -11.2160   27.0180 C.2    94  ASN94       0.2621
     77  O         22.6420  -10.7720   27.5030 O.2    94  ASN94      -0.2715
     78  CB        24.1860  -12.1360   29.3590 C.3    94  ASN94       0.1195
     79  CG        25.2020  -11.1380   29.8910 C.2    94  ASN94       0.2630
     80  OD1       25.9910  -10.6430   29.0770 O.2    94  ASN94      -0.2716
     81  ND2       25.1130  -10.8020   31.1770 N.am   94  ASN94      -0.0877
     82  N         24.3200  -10.7720   25.9600 N.am   95  LEU95      -0.1977
     83  CA        23.8450   -9.6360   25.1590 C.3    95  LEU95       0.1596
     84  C         23.8290   -8.3360   25.9870 C.2    95  LEU95       0.2287
     85  O         22.8730   -7.5370   25.9200 O.2    95  LEU95      -0.2864
     86  CB        22.4650   -9.8910   24.5350 C.3    95  LEU95       0.0297
     87  CG        22.2330  -11.0280   23.5610 C.3    95  LEU95       0.0022
     88  CD1       20.9200  -10.8840   22.8050 C.3    95  LEU95       0.0001
     89  CD2       23.4130  -11.0820   22.5950 C.3    95  LEU95       0.0001
     90  N         20.1780  -16.8370   32.9530 N.3   170  ILE170     -0.1245
     91  CA        21.1230  -15.8750   32.3610 C.3   170  ILE170      0.1561
     92  C         21.4820  -14.8490   33.4330 C.2   170  ILE170      0.2260
     93  O         20.6040  -14.4720   34.2180 O.2   170  ILE170     -0.2867
     94  CB        20.4780  -15.2010   31.0850 C.3   170  ILE170      0.0252
     95  CG1       19.9140  -16.3450   30.1870 C.3   170  ILE170      0.0019
     96  CG2       21.4570  -14.2850   30.3120 C.3   170  ILE170      0.0019
     97  CD1       21.0480  -17.0080   29.3480 C.3   170  ILE170      0.0001
     98  N          3.8950   -9.8660   25.1900 N.3   190  ASP190     -0.1225
     99  CA         5.3600   -9.9650   25.1260 C.3   190  ASP190      0.1805
    100  C          5.7700   -9.6390   23.6900 C.2   190  ASP190      0.2598
    101  O          4.9330   -9.4320   22.7910 O.2   190  ASP190     -0.2718
    102  CB         5.7900  -11.3270   25.6710 C.3   190  ASP190      0.1424
    103  CG         7.2600  -11.5420   25.9300 C.2   190  ASP190      0.3668
    104  OD1        7.9930  -10.5250   25.9900 O.co2 190  ASP190     -0.2456
    105  OD2        7.7990  -12.6610   26.1140 O.co2 190  ASP190     -0.2456
    106  N          7.0480   -9.3360   23.5520 N.am  191  ALA191     -0.1966
    107  CA         7.6500   -9.1380   22.2310 C.3   191  ALA191      0.1728
    108  C          7.8850  -10.5970   21.7700 C.2   191  ALA191      0.2616
    109  O          7.9040  -11.5160   22.6260 O.2   191  ALA191     -0.2715
    110  CB         8.9590   -8.3620   22.3170 C.3   191  ALA191      0.0334
    111  N          8.3060  -10.7790   20.5390 N.am  192  CYS192     -0.1954
    112  CA         8.5550  -12.1590   20.0610 C.3   192  CYS192      0.1843
    113  C          9.5960  -12.0060   18.9730 C.2   192  CYS192      0.2625
    114  O         10.1370  -10.8840   18.8480 O.2   192  CYS192     -0.2714
    115  CB         7.2790  -12.9130   19.7040 C.3   192  CYS192      0.0997
    116  SG         7.5100  -14.7180   19.5070 S.3   192  CYS192     -0.0797
    117  N          9.8850  -13.1110   18.2910 N.am  193  GLU193     -0.1963
    118  CA        10.9130  -13.0620   17.2450 C.3   193  GLU193      0.1733
    119  C         10.5580  -11.9470   16.2620 C.2   193  GLU193      0.2616
    120  O          9.3830  -11.8900   15.8820 O.2   193  GLU193     -0.2715
    121  CB        11.1070  -14.3680   16.4710 C.3   193  GLU193      0.0429
    122  CG        11.0950  -15.5180   17.4760 C.3   193  GLU193      0.1163
    123  CD        11.4810  -16.8680   16.9230 C.2   193  GLU193      0.3649
    124  OE1       11.4810  -16.8680   15.6230 O.co2 193  GLU193     -0.2457
    125  OE2       11.7410  -17.8830   17.5900 O.co2 193  GLU193     -0.2457
    126  N         11.5790  -11.2860   15.7410 N.am  194  GLY194     -0.1955
    127  CA        11.3000  -10.2330   14.7650 C.3   194  GLY194      0.1869
    128  C         10.9770   -8.8620   15.3590 C.2   194  GLY194      0.2309
    129  O         11.0760   -7.8980   14.5730 O.2   194  GLY194     -0.2863
    130  N         12.8890   -7.4850   17.8740 N.3   196  SER196     -0.1217
    131  CA        14.1700   -7.0440   18.3750 C.3   196  SER196      0.1889
    132  C         14.5190   -5.6870   17.7670 C.2   196  SER196      0.2288
    133  O         14.2460   -5.4780   16.5780 O.2   196  SER196     -0.2866
    134  CB        15.3380   -8.0190   18.2160 C.3   196  SER196      0.2089
    135  OG        15.1140   -9.2970   18.7910 O.3   196  SER196     -0.2183
    136  N         14.0170   -3.5680   22.5660 N.3   216  VAL216     -0.1231
    137  CA        13.7330   -5.0280   22.5620 C.3   216  VAL216      0.1692
    138  C         15.0460   -5.8140   22.4370 C.2   216  VAL216      0.2593
    139  O         15.7430   -5.6980   21.4090 O.2   216  VAL216     -0.2718
    140  CB        12.6490   -5.4190   21.5480 C.3   216  VAL216      0.0266
    141  CG1       12.3940   -6.9510   21.5470 C.3   216  VAL216      0.0020
    142  CG2       11.3390   -4.6700   21.7180 C.3   216  VAL216      0.0020
    143  N         15.3960   -6.6120   23.4670 N.am  217  SER217     -0.1938
    144  CA        16.6790   -7.3370   23.4140 C.3   217  SER217      0.2055
    145  C         16.6220   -8.8530   23.3660 C.2   217  SER217      0.2643
    146  O         16.9630   -9.4010   22.3040 O.2   217  SER217     -0.2714
    147  CB        17.5970   -6.9640   24.5900 C.3   217  SER217      0.2130
    148  OG        18.9320   -7.3180   24.2940 O.3   217  SER217     -0.2179
    149  N         16.1520   -9.5080   24.4240 N.am  218  TRP218     -0.1959
    150  CA        16.1770  -10.9840   24.4820 C.3   218  TRP218      0.1771
    151  C         15.1170  -11.4860   25.4380 C.2   218  TRP218      0.2620
    152  O         14.4090  -10.7500   26.1520 O.2   218  TRP218     -0.2715
    153  CB        17.5780  -11.4900   24.8960 C.3   218  TRP218      0.0590
    154  CG        18.0040  -11.1630   26.2960 C.ar  218  TRP218      0.0006
    155  CD1       18.7080  -10.0430   26.6560 C.ar  218  TRP218      0.0946
    156  CD2       17.8900  -11.9360   27.5160 C.ar  218  TRP218      0.0152
    157  NE1       19.0110  -10.0640   27.9800 N.ar  218  TRP218     -0.2442
    158  CE2       18.5050  -11.1890   28.5570 C.ar  218  TRP218      0.0810
    159  CE3       17.3430  -13.1830   27.8260 C.ar  218  TRP218      0.0012
    160  CZ2       18.5130  -11.6030   29.8890 C.ar  218  TRP218      0.0191
    161  CZ3       17.3310  -13.5850   29.1410 C.ar  218  TRP218      0.0001
    162  CH2       17.9210  -12.8280   30.1640 C.ar  218  TRP218      0.0015
    163  N         14.9550  -12.8180   25.3640 N.am  219  GLY219     -0.1940
    164  CA        13.9710  -13.4700   26.2570 C.3   219  GLY219      0.2014
    165  C         14.0390  -14.9830   25.9780 C.2   219  GLY219      0.2642
    166  O         14.8770  -15.3900   25.1520 O.2   219  GLY219     -0.2714
    167  N         13.1150  -15.7180   26.5670 N.am  220  GLU220     -0.1917
    168  CA        13.1960  -17.1930   26.2930 C.3   220  GLU220      0.1949
    169  C         11.8240  -17.7020   25.9140 C.2   220  GLU220      0.2659
    170  O         10.9830  -17.7660   26.8210 O.2   220  GLU220     -0.2711
    171  CB        13.7450  -17.8670   27.5540 C.2   220  GLU220      0.0111
    172  CG        14.9910  -17.2220   28.1520 C.2   220  GLU220      0.0838
    173  CD        15.5110  -17.7380   29.4590 C.2   220  GLU220      0.3877
    174  OE1       15.1410  -17.1120   30.4780 O.co2 220  GLU220     -0.2406
    175  OE2       16.4500  -18.5330   29.4680 O.co2 220  GLU220     -0.2406
    176  N         11.5640  -17.8360   24.6300 N.am  221  GLY221     -0.1937
    177  CA        10.1690  -18.1750   24.2070 C.3   221  GLY221      0.2014
    178  C          9.4130  -16.8370   24.1990 C.2   221  GLY221      0.2639
    179  O         10.0530  -15.7910   24.4570 O.2   221  GLY221     -0.2714
    180  N          8.1290  -16.8510   23.9610 N.am  222  CYS222     -0.1967
    181  CA         7.3270  -15.6220   23.8880 C.3   222  CYS222      0.1712
    182  C          6.1200  -15.7930   24.8040 C.2   222  CYS222      0.2296
    183  O          5.3800  -16.7700   24.5670 O.2   222  CYS222     -0.2864
    184  CB         6.8340  -15.3000   22.4770 C.3   222  CYS222      0.0983
    185  SG         8.2000  -15.3430   21.3350 S.3   222  CYS222     -0.0798
    186  N          9.8280  -13.3170   31.3050 N.3   228  TYR228     -0.1227
    187  CA         9.7760  -11.8820   31.0720 C.3   228  TYR228      0.1736
    188  C         10.7000  -11.4950   29.9390 C.2   228  TYR228      0.2596
    189  O         11.7510  -12.0820   29.6950 O.2   228  TYR228     -0.2718
    190  CB        10.1770  -11.1250   32.3550 C.3   228  TYR228      0.0548
    191  CG         9.3360  -11.5260   33.5400 C.ar  228  TYR228     -0.0200
    192  CD1        8.1370  -10.8650   33.7790 C.ar  228  TYR228     -0.0009
    193  CD2        9.7680  -12.5080   34.4570 C.ar  228  TYR228     -0.0009
    194  CE1        7.2890  -11.2490   34.8180 C.ar  228  TYR228      0.0417
    195  CE2        8.9770  -12.8500   35.5560 C.ar  228  TYR228      0.0417
    196  CZ         7.7320  -12.2360   35.6960 C.ar  228  TYR228      0.1957
    197  OH         6.8700  -12.5430   36.7130 O.3   228  TYR228     -0.2866
    198  N         10.3070  -10.3970   29.2980 N.am  229  GLY229     -0.1942
    199  CA        11.1280   -9.9390   28.1520 C.3   229  GLY229      0.2014
    200  C         12.1840   -9.0170   28.7990 C.2   229  GLY229      0.2639
    201  O         11.8280   -8.4230   29.8130 O.2   229  GLY229     -0.2714
    202  N         13.2980   -8.9640   28.1260 N.am  230  PHE230     -0.1959
    203  CA        14.4360   -8.1830   28.6120 C.3   230  PHE230      0.1771
    204  C         14.7690   -7.1290   27.5670 C.2   230  PHE230      0.2616
    205  O         14.6780   -7.4060   26.3640 O.2   230  PHE230     -0.2715
    206  CB        15.6480   -9.0740   28.9060 C.3   230  PHE230      0.0574
    207  CG        15.5540   -9.7620   30.2430 C.ar  230  PHE230     -0.0200
    208  CD1       14.7480  -10.9010   30.3660 C.ar  230  PHE230     -0.0042
    209  CD2       16.2010   -9.2360   31.3610 C.ar  230  PHE230     -0.0042
    210  CE1       14.6350  -11.5700   31.5830 C.ar  230  PHE230     -0.0003
    211  CE2       16.0270   -9.8840   32.5900 C.ar  230  PHE230     -0.0003
    212  CZ        15.2100  -11.0120   32.7210 C.ar  230  PHE230     -0.0000
    213  N         15.0890   -5.9480   28.0960 N.am  231  TYR231     -0.2027
    214  CA        15.3370   -4.8060   27.2150 C.3   231  TYR231      0.1325
    215  C         16.6520   -4.1210   27.5180 C.3   231  TYR231      0.2039
    216  O         16.8450   -3.9440   28.7290 O.3   231  TYR231     -0.2185
    217  CB        14.1970   -3.7960   27.5990 C.3   231  TYR231      0.0507
    218  CG        12.8350   -4.3160   27.2360 C.ar  231  TYR231     -0.0202
    219  CD1       12.1340   -5.1690   28.1020 C.ar  231  TYR231     -0.0009
    220  CD2       12.3260   -4.0950   25.9520 C.ar  231  TYR231     -0.0009
    221  CE1       10.9230   -5.7490   27.7370 C.ar  231  TYR231      0.0417
    222  CE2       11.0760   -4.6120   25.6160 C.ar  231  TYR231      0.0417
    223  CZ        10.4120   -5.4670   26.4710 C.ar  231  TYR231      0.1957
    224  OH         9.2500   -6.0790   26.0750 O.3   231  TYR231     -0.2866
@<TRIPOS>BOND
     1     7     6    1
     2     8     6    1
     3     6     5    1
     4     1     2    1
     5     5     2    1
     6     2     3    1
     7     3     9   am
     8     3     4    2
     9     9    10    1
    10    40    39    2
    11    12    11    2
    12    39    38    1
    13    11    10    1
    14    10    13    1
    15    13    14    1
    16    38    41    1
    17    38    37    1
    18    41    42    1
    19   129   128    2
    20   127   128    1
    21   127   126    1
    22    28    27    2
    23    25    26    1
    24   124   123   ar
    25    42    44   ar
    26    42    43   ar
    27   126   119   am
    28    27    26    1
    29   120   119    2
    30    47    44   ar
    31    47    49   ar
    32    18    17    2
    33   119   118    1
    34    44    46   ar
    35    26    29    1
    36    43    45   ar
    37   121   118    1
    38   121   122    1
    39    29    30    1
    40   133   132    2
    41    17    16    1
    42    49    50   ar
    43   123   122    1
    44   123   125   ar
    45   118   117    1
    46    46    45   ar
    47    46    48   ar
    48    32    30   ar
    49    32    34   ar
    50   132   131    1
    51    30    31   ar
    52    50    48   ar
    53   130   131    1
    54    16    15    1
    55    16    19    1
    56   134   131    1
    57   134   135    1
    58   117   113   am
    59    22    24   ar
    60    22    20   ar
    61    24    23   ar
    62   114   113    2
    63    34    35   ar
    64    31    33   ar
    65   113   112    1
    66    19    20    1
    67    20    21   ar
    68    62    64   ar
    69    62    60   ar
    70   116   115    1
    71   116   185    1
    72    64    63   ar
    73   115   112    1
    74    59    60   ar
    75    59    57   ar
    76    60    58   ar
    77    23    21   ar
    78    63    61   ar
    79    35    33   ar
    80    35    36    1
    81   112   111    1
    82    57    56   ar
    83    58    61   ar
    84    58    56   ar
    85    56    55    1
    86   111   108   am
    87    55    52    1
    88   185   184    1
    89   139   138    2
    90   141   140    1
    91   140   142    1
    92   140   137    1
    93   108   107    1
    94   108   109    2
    95   107   110    1
    96   107   106    1
    97   146   145    2
    98    52    53    1
    99    52    51    1
   100   138   137    1
   101   138   143   am
   102   184   181    1
   103    54    53    2
   104   137   136    1
   105    89    87    1
   106   101   100    2
   107    88    87    1
   108   145   144    1
   109   145   149   am
   110   144   143    1
   111   144   147    1
   112   106   100   am
   113    87    86    1
   114   100    99    1
   115   181   180    1
   116   181   182    1
   117   180   178   am
   118   178   177    1
   119   178   179    2
   120   177   176    1
   121   148   147    1
   122   149   150    1
   123   150   153    1
   124   150   151    1
   125    86    83    1
   126   183   182    2
   127   176   169   am
   128   153   154    1
   129    99    98    1
   130    99   102    1
   131   166   165    2
   132    83    82    1
   133    83    84    1
   134   163   151   am
   135   163   164    1
   136   151   152    2
   137   222   220   ar
   138   222   223   ar
   139   102   103    1
   140    65    66    1
   141   169   168    1
   142   169   170    2
   143    85    84    2
   144   103   104   ar
   145   103   105   ar
   146   220   218   ar
   147    82    76   am
   148   165   164    1
   149   165   167   am
   150   224   223    1
   151   168   167    1
   152   168   171    1
   153   154   155   ar
   154   154   156   ar
   155   205   204    2
   156   223   221   ar
   157   155   157   ar
   158    76    77    2
   159    76    75    1
   160    66    67    1
   161    66    69    1
   162   214   215    1
   163   214   217    1
   164   214   213    1
   165   218   217    1
   166   218   219   ar
   167    67    68    2
   168    67    74   am
   169    74    75    1
   170   156   159   ar
   171   156   158   ar
   172   215   216    1
   173   171   172    2
   174   204   213   am
   175   204   203    1
   176   221   219   ar
   177   159   161   ar
   178    75    78    1
   179   157   158   ar
   180   202   203    1
   181   202   200   am
   182   172   173    1
   183   199   200    1
   184   199   198    1
   185    69    70    2
   186   158   160   ar
   187   203   206    1
   188   200   201    2
   189   206   207    1
   190    80    79    2
   191   161   162   ar
   192   198   188   am
   193    97    95    1
   194    78    79    1
   195   173   175   ar
   196   173   174   ar
   197    70    71    1
   198   189   188    2
   199   160   162   ar
   200    79    81   am
   201   188   187    1
   202    95    94    1
   203   207   208   ar
   204   207   209   ar
   205    96    94    1
   206   208   210   ar
   207    72    71   ar
   208    71    73   ar
   209   187   186    1
   210   187   190    1
   211    94    91    1
   212   209   211   ar
   213   210   212   ar
   214   190   191    1
   215    91    90    1
   216    91    92    1
   217   211   212   ar
   218    92    93    2
   219   191   192   ar
   220   191   193   ar
   221   192   194   ar
   222   193   195   ar
   223   194   196   ar
   224   195   196   ar
   225   196   197    1
