@<TRIPOS>MOLECULE
tmp/1bb6A00.pdb
 167 162 0 0 0
SMALL
GASTEIGER

@<TRIPOS>ATOM
      1  N         44.2900   37.7410   16.3030 N.3    35  GLU35      -0.1245
      2  CA        44.4550   37.3670   17.7100 C.3    35  GLU35       0.1567
      3  C         44.9560   35.9300   17.8090 C.2    35  GLU35       0.2260
      4  O         45.8890   35.6900   18.5820 O.2    35  GLU35      -0.2867
      5  CB        43.1910   37.4900   18.5490 C.3    35  GLU35       0.0388
      6  CG        42.8070   38.8520   19.1060 C.3    35  GLU35       0.1160
      7  CD        43.7340   39.4810   20.0930 C.2    35  GLU35       0.3649
      8  OE1       44.8100   39.0480   20.4810 O.co2  35  GLU35      -0.2457
      9  OE2       43.3020   40.5730   20.5330 O.co2  35  GLU35      -0.2457
     10  N         48.3650   32.3190   25.2010 N.3    44  ASN44      -0.1240
     11  CA        49.4760   33.2730   25.2740 C.3    44  ASN44       0.1653
     12  C         49.5820   33.8480   26.6860 C.2    44  ASN44       0.2266
     13  O         48.6550   34.5100   27.1570 O.2    44  ASN44      -0.2867
     14  CB        49.3330   34.3840   24.2280 C.3    44  ASN44       0.1155
     15  CG        50.6000   35.2320   24.1690 C.2    44  ASN44       0.2627
     16  OD1       51.5770   34.7780   23.5380 O.2    44  ASN44      -0.2716
     17  ND2       50.5890   36.4040   24.8040 N.am   44  ASN44      -0.0877
     18  N         51.1470   36.2600   29.6040 N.3    46  ASN46      -0.1240
     19  CA        51.5730   37.6650   29.7310 C.3    46  ASN46       0.1653
     20  C         52.5570   37.7920   30.9010 C.2    46  ASN46       0.2266
     21  O         52.6690   36.8940   31.7450 O.2    46  ASN46      -0.2867
     22  CB        50.3580   38.5880   29.8520 C.3    46  ASN46       0.1155
     23  CG        49.4730   38.4930   28.6200 C.2    46  ASN46       0.2627
     24  OD1       48.3300   38.0210   28.7190 O.2    46  ASN46      -0.2716
     25  ND2       49.9790   38.9070   27.4630 N.am   46  ASN46      -0.0877
     26  N         46.0570   34.5850   27.7700 N.3    52  ASP52      -0.1239
     27  CA        44.9950   34.8900   26.7940 C.3    52  ASP52       0.1674
     28  C         44.5370   33.5260   26.2660 C.2    52  ASP52       0.2266
     29  O         45.4070   32.6780   26.0270 O.2    52  ASP52      -0.2867
     30  CB        45.4500   35.8530   25.7190 C.3    52  ASP52       0.1410
     31  CG        45.9210   37.1910   26.2430 C.2    52  ASP52       0.3668
     32  OD1       45.3900   37.7730   27.1920 O.co2  52  ASP52      -0.2456
     33  OD2       46.8950   37.6750   25.6280 O.co2  52  ASP52      -0.2456
     34  N         41.1710   35.4560   22.1690 N.3    57  GLN57      -0.1231
     35  CA        42.2480   35.6920   23.1320 C.3    57  GLN57       0.1698
     36  C         41.8070   36.5380   24.3290 C.2    57  GLN57       0.2592
     37  O         42.2870   37.6540   24.5850 O.2    57  GLN57      -0.2718
     38  CB        43.4490   36.3410   22.4320 C.3    57  GLN57       0.0381
     39  CG        44.2110   35.3940   21.5290 C.3    57  GLN57       0.0905
     40  CD        45.2050   34.5390   22.2590 C.2    57  GLN57       0.2608
     41  OE1       46.2840   34.9890   22.6340 O.2    57  GLN57      -0.2717
     42  NE2       44.8790   33.2720   22.4750 N.am   57  GLN57      -0.0878
     43  N         40.9020   35.9440   25.0790 N.am   58  ILE58      -0.1966
     44  CA        40.3160   36.4850   26.3030 C.3    58  ILE58       0.1727
     45  C         41.2510   36.2770   27.4860 C.2    58  ILE58       0.2616
     46  O         41.7050   35.1580   27.7720 O.2    58  ILE58      -0.2715
     47  CB        38.8860   35.8660   26.5340 C.3    58  ILE58       0.0290
     48  CG1       38.0310   36.2290   25.2990 C.3    58  ILE58       0.0022
     49  CG2       38.2980   36.3130   27.8810 C.3    58  ILE58       0.0023
     50  CD1       36.5830   35.7170   25.2630 C.3    58  ILE58       0.0001
     51  N         41.5190   37.3750   28.1640 N.am   59  ASN59      -0.1972
     52  CA        42.4130   37.4510   29.3260 C.3    59  ASN59       0.1688
     53  C         41.8140   36.8820   30.6030 C.2    59  ASN59       0.2292
     54  O         40.6560   37.1240   30.9730 O.2    59  ASN59      -0.2864
     55  CB        42.8180   38.9300   29.4430 C.3    59  ASN59       0.1181
     56  CG        44.0560   39.1030   30.3090 C.2    59  ASN59       0.2629
     57  OD1       43.9290   39.4690   31.4850 O.2    59  ASN59      -0.2716
     58  ND2       45.2170   38.8360   29.7230 N.am   59  ASN59      -0.0877
     59  N         40.4900   39.3020   34.0220 N.3    62  TYR62      -0.1227
     60  CA        39.1370   39.7870   34.2940 C.3    62  TYR62       0.1736
     61  C         37.9770   38.8780   33.9400 C.2    62  TYR62       0.2592
     62  O         36.9400   38.9270   34.6310 O.2    62  TYR62      -0.2718
     63  CB        38.8060   41.0860   33.4940 C.3    62  TYR62       0.0548
     64  CG        39.9360   42.0700   33.4990 C.ar   62  TYR62      -0.0200
     65  CD1       40.0400   43.0120   34.5110 C.ar   62  TYR62      -0.0009
     66  CD2       40.9180   42.0300   32.4980 C.ar   62  TYR62      -0.0009
     67  CE1       41.1090   43.9120   34.5360 C.ar   62  TYR62       0.0417
     68  CE2       41.9920   42.9230   32.5040 C.ar   62  TYR62       0.0417
     69  CZ        42.0690   43.8640   33.5350 C.ar   62  TYR62       0.1957
     70  OH        43.0980   44.7720   33.6070 O.3    62  TYR62      -0.2866
     71  N         38.1480   38.1390   32.8560 N.am   63  TRP63      -0.2029
     72  CA        37.0460   37.3070   32.3440 C.3    63  TRP63       0.1326
     73  C         36.9970   35.8440   32.6750 C.3    63  TRP63       0.2039
     74  O         35.8110   35.4160   32.6920 O.3    63  TRP63      -0.2185
     75  CB        37.0990   37.4970   30.7900 C.3    63  TRP63       0.0523
     76  CG        37.3350   38.9240   30.4100 C.ar   63  TRP63       0.0002
     77  CD1       38.5020   39.4970   29.9790 C.ar   63  TRP63       0.0946
     78  CD2       36.3860   39.9990   30.4920 C.ar   63  TRP63       0.0152
     79  NE1       38.3340   40.8430   29.7620 N.ar   63  TRP63      -0.2442
     80  CE2       37.0450   41.1700   30.0690 C.ar   63  TRP63       0.0810
     81  CE3       35.0460   40.0590   30.8660 C.ar   63  TRP63       0.0012
     82  CZ2       36.3990   42.3970   30.0130 C.ar   63  TRP63       0.0191
     83  CZ3       34.4030   41.2780   30.8110 C.ar   63  TRP63       0.0001
     84  CH2       35.0630   42.4310   30.3960 C.ar   63  TRP63       0.0015
     85  N         39.1660   38.3990   38.3480 N.3    73  LYS73      -0.1245
     86  CA        37.7450   38.6220   38.6410 C.3    73  LYS73       0.1561
     87  C         36.7590   37.6640   37.9870 C.2    73  LYS73       0.2260
     88  O         35.5770   37.6740   38.4190 O.2    73  LYS73      -0.2867
     89  CB        37.2780   40.0210   38.2020 C.3    73  LYS73       0.0271
     90  CG        38.0340   41.2030   38.7990 C.3    73  LYS73       0.0035
     91  CD        37.5840   42.5300   38.1870 C.3    73  LYS73       0.0206
     92  CE        38.6810   43.5780   38.1220 C.3    73  LYS73       0.1093
     93  NZ        39.3390   43.8170   39.4310 N.3    73  LYS73      -0.1314
     94  N         34.7190   37.5610   35.3120 N.3    75  VAL75      -0.1245
     95  CA        33.4100   38.2070   35.0570 C.3    75  VAL75       0.1561
     96  C         32.5080   37.3400   34.1780 C.2    75  VAL75       0.2260
     97  O         31.2690   37.4580   34.3050 O.2    75  VAL75      -0.2867
     98  CB        33.6740   39.6290   34.5150 C.3    75  VAL75       0.0252
     99  CG1       32.4860   40.3340   33.9030 C.3    75  VAL75       0.0019
    100  CG2       34.2600   40.4930   35.6300 C.3    75  VAL75       0.0019
    101  N         29.8910   39.5280   26.2520 N.3    97  ARG97      -0.1231
    102  CA        29.9570   40.2390   27.5380 C.3    97  ARG97       0.1694
    103  C         31.1290   41.2280   27.5520 C.2    97  ARG97       0.2588
    104  O         30.9980   42.3130   28.1550 O.2    97  ARG97      -0.2718
    105  CB        30.0420   39.2580   28.7080 C.3    97  ARG97       0.0321
    106  CG        30.3790   39.8460   30.0670 C.3    97  ARG97       0.0489
    107  CD        29.3130   40.7500   30.5750 C.3    97  ARG97       0.2205
    108  NE        29.7290   41.5620   31.6930 N.pl3  97  ARG97      -0.0865
    109  CZ        30.4650   42.6700   31.7080 C.cat  97  ARG97       0.5346
    110  NH1       30.9970   43.2790   30.6500 N.pl3  97  ARG97       0.1354
    111  NH2       30.6670   43.2380   32.9060 N.pl3  97  ARG97       0.1354
    112  N         32.2500   40.8960   26.9360 N.am   98  VAL98      -0.2033
    113  CA        33.4090   41.7850   26.8910 C.3    98  VAL98       0.1282
    114  C         33.0390   43.0600   26.1330 C.3    98  VAL98       0.2035
    115  O         33.3930   44.1160   26.7000 O.3    98  VAL98      -0.2185
    116  CB        34.6560   41.1040   26.2890 C.3    98  VAL98       0.0226
    117  CG1       35.7930   42.0970   26.0420 C.3    98  VAL98       0.0018
    118  CG2       35.1270   39.9220   27.1210 C.3    98  VAL98       0.0018
    119  N         31.2960   46.3070   27.9870 N.3   101  ASP101     -0.1225
    120  CA        32.0320   47.2550   28.8350 C.3   101  ASP101      0.1790
    121  C         32.2580   48.4980   27.9660 C.2   101  ASP101      0.2440
    122  O         32.2070   48.4520   26.7290 O.2   101  ASP101     -0.2733
    123  CB        33.3130   46.6920   29.4350 C.3   101  ASP101      0.1423
    124  CG        33.0760   46.0950   30.8110 C.2   101  ASP101      0.3668
    125  OD1       31.9470   45.8240   31.2370 O.co2 101  ASP101     -0.2456
    126  OD2       34.0810   45.8880   31.5160 O.co2 101  ASP101     -0.2456
    127  N         32.5350   49.5970   28.6490 N.am  102  PRO102     -0.2718
    128  CA        32.7430   50.8960   28.0120 C.3   102  PRO102      0.1535
    129  C         33.7080   50.9560   26.8520 C.2   102  PRO102      0.2598
    130  O         33.3930   51.6530   25.8600 O.2   102  PRO102     -0.2715
    131  CB        33.1970   51.7690   29.1880 C.3   102  PRO102      0.0310
    132  CG        32.4540   51.1910   30.3590 C.3   102  PRO102      0.0237
    133  CD        32.5890   49.6900   30.1260 C.3   102  PRO102      0.0939
    134  N         34.8310   50.2780   26.8860 N.am  103  ASN103     -0.1973
    135  CA        35.8230   50.2850   25.8010 C.3   103  ASN103      0.1688
    136  C         35.3750   49.5430   24.5420 C.2   103  ASN103      0.2292
    137  O         36.0030   49.7300   23.4720 O.2   103  ASN103     -0.2864
    138  CB        37.1270   49.7130   26.3600 C.3   103  ASN103      0.1181
    139  CG        37.9230   50.6780   27.2180 C.2   103  ASN103      0.2629
    140  OD1       37.5490   51.8430   27.4210 O.2   103  ASN103     -0.2716
    141  ND2       39.0450   50.1830   27.7310 N.am  103  ASN103     -0.0877
    142  N         38.8410   46.6780   23.4410 N.3   107  ALA107     -0.1231
    143  CA        39.3800   45.8500   24.5080 C.3   107  ALA107      0.1694
    144  C         40.4750   44.9270   23.9710 C.2   107  ALA107      0.2592
    145  O         41.3430   44.4830   24.7280 O.2   107  ALA107     -0.2718
    146  CB        38.2990   44.9990   25.1830 C.3   107  ALA107      0.0304
    147  N         40.3670   44.6390   22.6860 N.am  108  TRP108     -0.1962
    148  CA        41.2480   43.7840   21.9000 C.3   108  TRP108      0.1771
    149  C         42.3110   44.6130   21.1770 C.2   108  TRP108      0.2619
    150  O         42.0240   45.3910   20.2530 O.2   108  TRP108     -0.2715
    151  CB        40.4230   42.9460   20.9200 C.3   108  TRP108      0.0590
    152  CG        39.6170   41.8460   21.5240 C.ar  108  TRP108      0.0006
    153  CD1       40.0940   40.6040   21.8610 C.ar  108  TRP108      0.0946
    154  CD2       38.2240   41.8440   21.8770 C.ar  108  TRP108      0.0152
    155  NE1       39.0720   39.8380   22.3930 N.ar  108  TRP108     -0.2442
    156  CE2       37.9210   40.5720   22.4000 C.ar  108  TRP108      0.0810
    157  CE3       37.2200   42.8000   21.7900 C.ar  108  TRP108      0.0012
    158  CZ2       36.6660   40.2290   22.8630 C.ar  108  TRP108      0.0191
    159  CZ3       35.9530   42.4580   22.2350 C.ar  108  TRP108      0.0001
    160  CH2       35.6800   41.1990   22.7670 C.ar  108  TRP108      0.0015
    161  N         43.5450   44.4170   21.6040 N.am  109  VAL109     -0.1977
    162  CA        44.7230   45.1090   21.0740 C.3   109  VAL109      0.1596
    163  C         44.8650   44.7900   19.5900 C.2   109  VAL109      0.2287
    164  O         45.1470   45.7570   18.8540 O.2   109  VAL109     -0.2864
    165  CB        45.9790   44.7700   21.8940 C.3   109  VAL109      0.0276
    166  CG1       47.2810   45.3350   21.3290 C.3   109  VAL109      0.0022
    167  CG2       45.8340   45.2180   23.3410 C.3   109  VAL109      0.0022
@<TRIPOS>BOND
     1     1     2    1
     2     2     3    1
     3     2     5    1
     4     3     4    2
     5     5     6    1
     6   164   163    2
     7     6     7    1
     8   163   162    1
     9     7     8   ar
    10     7     9   ar
    11   150   149    2
    12   151   152    1
    13   151   148    1
    14   162   161    1
    15   162   165    1
    16   149   161   am
    17   149   148    1
    18   166   165    1
    19   152   153   ar
    20   152   154   ar
    21    39    40    1
    22    39    38    1
    23   157   154   ar
    24   157   159   ar
    25   153   155   ar
    26   154   156   ar
    27   165   167    1
    28   148   147    1
    29    34    35    1
    30   159   160   ar
    31    40    42   am
    32    40    41    2
    33   155   156   ar
    34   156   158   ar
    35    38    35    1
    36   147   144   am
    37   160   158   ar
    38    35    36    1
    39   142   143    1
    40   137   136    2
    41    16    15    2
    42   144   143    1
    43   144   145    2
    44    15    14    1
    45    15    17   am
    46    14    11    1
    47    36    37    2
    48    36    43   am
    49   143   146    1
    50   136   135    1
    51    43    44    1
    52    10    11    1
    53    50    48    1
    54    11    12    1
    55    48    47    1
    56    33    31   ar
    57    30    31    1
    58    30    27    1
    59   135   138    1
    60   135   134    1
    61   130   129    2
    62    29    28    2
    63   117   116    1
    64   114   115    1
    65   114   113    1
    66    31    32   ar
    67   101   102    1
    68    28    27    1
    69   116   113    1
    70   116   118    1
    71    44    47    1
    72    44    45    1
    73   138   139    1
    74    47    49    1
    75    12    13    2
    76   122   121    2
    77    27    26    1
    78   129   134   am
    79   129   128    1
    80   113   112    1
    81   112   103   am
    82   139   140    2
    83   139   141   am
    84    25    23   am
    85    45    46    2
    86    45    51   am
    87   102   103    1
    88   102   105    1
    89   103   104    2
    90   121   127   am
    91   121   120    1
    92   119   120    1
    93   128   127    1
    94   128   131    1
    95    51    52    1
    96    23    24    2
    97    23    22    1
    98   127   133    1
    99   105   106    1
   100   120   123    1
   101   131   132    1
   102    52    55    1
   103    52    53    1
   104   123   124    1
   105    55    56    1
   106    18    19    1
   107    58    56   am
   108    19    22    1
   109    19    20    1
   110    79    77   ar
   111    79    80   ar
   112    77    76   ar
   113    82    80   ar
   114    82    84   ar
   115   106   107    1
   116    80    78   ar
   117   133   132    1
   118    56    57    2
   119    84    83   ar
   120    76    78   ar
   121    76    75    1
   122    78    81   ar
   123   107   108    1
   124    53    54    2
   125   110   109    1
   126    75    72    1
   127    83    81   ar
   128   124   125   ar
   129   124   126   ar
   130    20    21    2
   131   108   109    2
   132   109   111    1
   133    72    73    1
   134    72    71    1
   135    66    68   ar
   136    66    64   ar
   137    68    69   ar
   138    73    74    1
   139    71    61   am
   140    63    64    1
   141    63    60    1
   142    64    65   ar
   143    69    70    1
   144    69    67   ar
   145    99    98    1
   146    61    60    1
   147    61    62    2
   148    59    60    1
   149    96    97    2
   150    96    95    1
   151    65    67   ar
   152    98    95    1
   153    98   100    1
   154    95    94    1
   155    87    88    2
   156    87    86    1
   157    92    91    1
   158    92    93    1
   159    91    90    1
   160    89    86    1
   161    89    90    1
   162    85    86    1
