@<TRIPOS>MOLECULE
tmp/1bb7A00.pdb
 151 147 0 0 0
SMALL
GASTEIGER

@<TRIPOS>ATOM
      1  N         44.1930   37.8200   16.0590 N.3    35  GLU35      -0.1245
      2  CA        44.3870   37.3870   17.4450 C.3    35  GLU35       0.1567
      3  C         44.8850   35.9520   17.5440 C.2    35  GLU35       0.2260
      4  O         45.8600   35.6900   18.2910 O.2    35  GLU35      -0.2867
      5  CB        43.1050   37.5010   18.2660 C.3    35  GLU35       0.0388
      6  CG        42.7070   38.8950   18.7600 C.3    35  GLU35       0.1160
      7  CD        43.6240   39.4690   19.8110 C.2    35  GLU35       0.3649
      8  OE1       44.6240   38.9530   20.2940 O.co2  35  GLU35      -0.2457
      9  OE2       43.2490   40.6080   20.1800 O.co2  35  GLU35      -0.2457
     10  N         48.3940   32.3640   24.9570 N.3    44  ASN44      -0.1240
     11  CA        49.4970   33.3140   25.0310 C.3    44  ASN44       0.1653
     12  C         49.6580   33.7900   26.4760 C.2    44  ASN44       0.2266
     13  O         48.7270   34.3790   27.0320 O.2    44  ASN44      -0.2867
     14  CB        49.3070   34.4990   24.0780 C.3    44  ASN44       0.1155
     15  CG        50.4620   35.4930   24.1620 C.2    44  ASN44       0.2627
     16  OD1       51.5390   35.2020   23.6000 O.2    44  ASN44      -0.2716
     17  ND2       50.2970   36.6340   24.8400 N.am   44  ASN44      -0.0877
     18  N         51.1090   36.1470   29.3460 N.3    46  ASN46      -0.1240
     19  CA        51.5340   37.5720   29.3970 C.3    46  ASN46       0.1653
     20  C         52.4940   37.7670   30.5690 C.2    46  ASN46       0.2266
     21  O         52.5230   36.9540   31.5010 O.2    46  ASN46      -0.2867
     22  CB        50.3300   38.5040   29.4420 C.3    46  ASN46       0.1155
     23  CG        49.6020   38.4420   28.1110 C.2    46  ASN46       0.2627
     24  OD1       48.4390   38.0260   28.0950 O.2    46  ASN46      -0.2716
     25  ND2       50.2320   38.8020   27.0160 N.am   46  ASN46      -0.0877
     26  N         45.9350   34.5810   27.5450 N.3    52  ASP52      -0.1239
     27  CA        44.9120   34.8620   26.5380 C.3    52  ASP52       0.1674
     28  C         44.4860   33.4840   26.0120 C.2    52  ASP52       0.2266
     29  O         45.3650   32.6370   25.8130 O.2    52  ASP52      -0.2867
     30  CB        45.3980   35.8120   25.4520 C.3    52  ASP52       0.1410
     31  CG        45.9310   37.1310   26.0090 C.2    52  ASP52       0.3668
     32  OD1       45.3250   37.7120   26.9110 O.co2  52  ASP52      -0.2456
     33  OD2       46.9720   37.5810   25.4980 O.co2  52  ASP52      -0.2456
     34  N         41.1240   35.2130   21.9130 N.3    57  GLN57      -0.1231
     35  CA        42.2010   35.5130   22.8580 C.3    57  GLN57       0.1698
     36  C         41.7220   36.3660   24.0350 C.2    57  GLN57       0.2592
     37  O         42.2370   37.4720   24.3180 O.2    57  GLN57      -0.2718
     38  CB        43.3850   36.2040   22.1480 C.3    57  GLN57       0.0381
     39  CG        44.1250   35.3280   21.1500 C.3    57  GLN57       0.0905
     40  CD        45.0120   34.3240   21.8470 C.2    57  GLN57       0.2608
     41  OE1       46.0570   34.6620   22.4000 O.2    57  GLN57      -0.2717
     42  NE2       44.5640   33.0760   21.8640 N.am   57  GLN57      -0.0878
     43  N         40.7800   35.8280   24.7520 N.am   58  ILE58      -0.1966
     44  CA        40.2010   36.4440   25.9580 C.3    58  ILE58       0.1727
     45  C         41.1750   36.2500   27.1160 C.2    58  ILE58       0.2616
     46  O         41.6840   35.1770   27.4270 O.2    58  ILE58      -0.2715
     47  CB        38.7490   35.8910   26.1670 C.3    58  ILE58       0.0290
     48  CG1       37.8660   36.4540   25.0130 C.3    58  ILE58       0.0022
     49  CG2       38.1910   36.2020   27.5640 C.3    58  ILE58       0.0023
     50  CD1       36.4820   35.7720   24.9460 C.3    58  ILE58       0.0001
     51  N         41.4440   37.3470   27.8070 N.am   59  ASN59      -0.1972
     52  CA        42.3880   37.4380   28.9170 C.3    59  ASN59       0.1688
     53  C         41.8170   36.9710   30.2420 C.2    59  ASN59       0.2292
     54  O         40.7080   37.3240   30.6380 O.2    59  ASN59      -0.2864
     55  CB        42.9000   38.8950   28.9620 C.3    59  ASN59       0.1181
     56  CG        44.0680   39.0460   29.9270 C.2    59  ASN59       0.2629
     57  OD1       43.8530   39.3930   31.1070 O.2    59  ASN59      -0.2716
     58  ND2       45.2530   38.7640   29.3890 N.am   59  ASN59      -0.0877
     59  N         40.6810   39.3060   33.6200 N.3    62  TYR62      -0.1227
     60  CA        39.3220   39.7970   33.7130 C.3    62  TYR62       0.1736
     61  C         38.1380   38.9000   33.4280 C.2    62  TYR62       0.2592
     62  O         37.1200   39.0240   34.1440 O.2    62  TYR62      -0.2718
     63  CB        39.1600   40.9520   32.6490 C.3    62  TYR62       0.0548
     64  CG        40.2200   42.0120   32.8700 C.ar   62  TYR62      -0.0200
     65  CD1       40.0610   42.9640   33.8730 C.ar   62  TYR62      -0.0009
     66  CD2       41.3870   42.0040   32.1040 C.ar   62  TYR62      -0.0009
     67  CE1       41.0520   43.9240   34.1000 C.ar   62  TYR62       0.0417
     68  CE2       42.3850   42.9490   32.3170 C.ar   62  TYR62       0.0417
     69  CZ        42.1960   43.9050   33.3200 C.ar   62  TYR62       0.1957
     70  OH        43.1690   44.8530   33.5390 O.3    62  TYR62      -0.2866
     71  N         38.2420   38.0800   32.3840 N.am   63  TRP63      -0.2029
     72  CA        37.0630   37.3030   31.9740 C.3    63  TRP63       0.1326
     73  C         36.9160   35.8500   32.3190 C.3    63  TRP63       0.2039
     74  O         35.7340   35.4670   32.2580 O.3    63  TRP63      -0.2185
     75  CB        37.0210   37.4400   30.4050 C.3    63  TRP63       0.0523
     76  CG        37.2220   38.8760   30.0320 C.ar   63  TRP63       0.0002
     77  CD1       38.3770   39.4780   29.6010 C.ar   63  TRP63       0.0946
     78  CD2       36.2370   39.9200   30.1530 C.ar   63  TRP63       0.0152
     79  NE1       38.1800   40.8250   29.3990 N.ar   63  TRP63      -0.2442
     80  CE2       36.8800   41.1150   29.7380 C.ar   63  TRP63       0.0810
     81  CE3       34.9060   39.9370   30.5490 C.ar   63  TRP63       0.0012
     82  CZ2       36.1970   42.3270   29.7020 C.ar   63  TRP63       0.0191
     83  CZ3       34.2370   41.1500   30.5160 C.ar   63  TRP63       0.0001
     84  CH2       34.8730   42.3190   30.1040 C.ar   63  TRP63       0.0015
     85  N         32.1770   40.7460   26.7700 N.3    98  VAL98      -0.1245
     86  CA        33.3280   41.6640   26.7100 C.3    98  VAL98       0.1561
     87  C         32.9700   42.9570   25.9590 C.2    98  VAL98       0.2260
     88  O         33.3310   44.0170   26.5250 O.2    98  VAL98      -0.2867
     89  CB        34.5820   40.9990   26.0890 C.3    98  VAL98       0.0252
     90  CG1       35.7190   41.9960   25.7790 C.3    98  VAL98       0.0019
     91  CG2       35.0960   39.8330   26.9310 C.3    98  VAL98       0.0019
     92  N         31.1900   46.1390   27.6360 N.3   101  ASP101     -0.1225
     93  CA        31.8780   47.1050   28.4960 C.3   101  ASP101      0.1790
     94  C         32.1610   48.3670   27.6660 C.2   101  ASP101      0.2440
     95  O         32.1270   48.4020   26.4310 O.2   101  ASP101     -0.2733
     96  CB        33.1440   46.5570   29.1480 C.3   101  ASP101      0.1423
     97  CG        32.8770   45.9660   30.5130 C.2   101  ASP101      0.3668
     98  OD1       31.7260   45.6760   30.8950 O.co2 101  ASP101     -0.2456
     99  OD2       33.8340   45.7580   31.2740 O.co2 101  ASP101     -0.2456
    100  N         32.4450   49.4290   28.4020 N.am  102  PRO102     -0.2718
    101  CA        32.7110   50.7580   27.8240 C.3   102  PRO102      0.1535
    102  C         33.6440   50.7900   26.6390 C.2   102  PRO102      0.2598
    103  O         33.2370   51.4700   25.6660 O.2   102  PRO102     -0.2715
    104  CB        33.2150   51.5310   29.0410 C.3   102  PRO102      0.0310
    105  CG        32.3820   50.9520   30.1800 C.3   102  PRO102      0.0237
    106  CD        32.4870   49.4630   29.8820 C.3   102  PRO102      0.0939
    107  N         34.7640   50.0850   26.6280 N.am  103  ASN103     -0.1973
    108  CA        35.6740   50.0970   25.4690 C.3   103  ASN103      0.1688
    109  C         35.1730   49.3620   24.2240 C.2   103  ASN103      0.2292
    110  O         35.8250   49.5070   23.1610 O.2   103  ASN103     -0.2864
    111  CB        37.0330   49.5430   25.9320 C.3   103  ASN103      0.1181
    112  CG        37.7270   50.5570   26.8230 C.2   103  ASN103      0.2629
    113  OD1       37.2350   51.6960   26.9420 O.2   103  ASN103     -0.2716
    114  ND2       38.8280   50.1560   27.4270 N.am  103  ASN103     -0.0877
    115  N         38.5630   46.5350   23.2040 N.3   107  ALA107     -0.1231
    116  CA        39.1290   45.6830   24.2380 C.3   107  ALA107      0.1694
    117  C         40.1950   44.7550   23.6240 C.2   107  ALA107      0.2592
    118  O         41.1010   44.2870   24.3420 O.2   107  ALA107     -0.2718
    119  CB        38.0550   44.8600   24.9440 C.3   107  ALA107      0.0304
    120  N         40.1280   44.4800   22.3320 N.am  108  TRP108     -0.1962
    121  CA        41.0700   43.6220   21.6160 C.3   108  TRP108      0.1771
    122  C         42.2140   44.4200   20.9860 C.2   108  TRP108      0.2619
    123  O         41.9620   45.2580   20.1090 O.2   108  TRP108     -0.2715
    124  CB        40.2960   42.8000   20.5700 C.3   108  TRP108      0.0590
    125  CG        39.5240   41.6560   21.1490 C.ar  108  TRP108      0.0006
    126  CD1       39.9810   40.3850   21.4060 C.ar  108  TRP108      0.0946
    127  CD2       38.1540   41.6580   21.5810 C.ar  108  TRP108      0.0152
    128  NE1       38.9850   39.6110   21.9650 N.ar  108  TRP108     -0.2442
    129  CE2       37.8420   40.3530   22.0650 C.ar  108  TRP108      0.0810
    130  CE3       37.1440   42.6140   21.5750 C.ar  108  TRP108      0.0012
    131  CZ2       36.5910   40.0060   22.5570 C.ar  108  TRP108      0.0191
    132  CZ3       35.8960   42.2800   22.0570 C.ar  108  TRP108      0.0001
    133  CH2       35.6140   40.9940   22.5370 C.ar  108  TRP108      0.0015
    134  N         43.4450   44.1320   21.3870 N.am  109  VAL109     -0.1977
    135  CA        44.6130   44.8410   20.8510 C.3   109  VAL109      0.1596
    136  C         44.7280   44.6040   19.3460 C.2   109  VAL109      0.2287
    137  O         45.0240   45.6010   18.6530 O.2   109  VAL109     -0.2864
    138  CB        45.9220   44.4650   21.5530 C.3   109  VAL109      0.0276
    139  CG1       47.1550   45.1760   20.9630 C.3   109  VAL109      0.0022
    140  CG2       45.8700   44.7370   23.0330 C.3   109  VAL109      0.0022
    141  N         42.3180   46.8810   17.3630 N.3   112  ARG112     -0.1245
    142  CA        42.8130   48.2730   17.3800 C.3   112  ARG112      0.1563
    143  C         43.9500   48.4970   16.3880 C.2   112  ARG112      0.2260
    144  O         43.9450   49.5470   15.7170 O.2   112  ARG112     -0.2867
    145  CB        43.2670   48.7200   18.7750 C.3   112  ARG112      0.0307
    146  CG        42.1330   48.8020   19.7930 C.3   112  ARG112      0.0489
    147  CD        42.4220   49.8590   20.8080 C.3   112  ARG112      0.2205
    148  NE        43.7410   49.7760   21.4070 N.pl3 112  ARG112     -0.0865
    149  CZ        44.1140   48.8870   22.3320 C.cat 112  ARG112      0.5346
    150  NH1       43.2640   47.9760   22.8130 N.pl3 112  ARG112      0.1354
    151  NH2       45.3510   48.8650   22.8090 N.pl3 112  ARG112      0.1354
@<TRIPOS>BOND
     1   144   143    2
     2     1     2    1
     3   143   142    1
     4   141   142    1
     5   142   145    1
     6     2     3    1
     7     2     5    1
     8     3     4    2
     9     5     6    1
    10   137   136    2
    11     6     7    1
    12   145   146    1
    13   136   135    1
    14   146   147    1
    15     7     9   ar
    16     7     8   ar
    17   123   122    2
    18   124   125    1
    19   124   121    1
    20   147   148    1
    21   135   134    1
    22   135   138    1
    23   139   138    1
    24   122   134   am
    25   122   121    1
    26   125   126   ar
    27   125   127   ar
    28    39    40    1
    29    39    38    1
    30   126   128   ar
    31   148   149    2
    32   138   140    1
    33   130   127   ar
    34   130   132   ar
    35   127   129   ar
    36   121   120    1
    37    40    42   am
    38    40    41    2
    39    34    35    1
    40   128   129   ar
    41   132   133   ar
    42   129   131   ar
    43    38    35    1
    44   149   151    1
    45   149   150    1
    46   120   117   am
    47   133   131   ar
    48    35    36    1
    49   110   109    2
    50   115   116    1
    51    16    15    2
    52   117   116    1
    53   117   118    2
    54    36    37    2
    55    36    43   am
    56    14    15    1
    57    14    11    1
    58    15    17   am
    59   109   108    1
    60   116   119    1
    61    43    44    1
    62    50    48    1
    63    10    11    1
    64    48    47    1
    65    11    12    1
    66    30    31    1
    67    30    27    1
    68   108   111    1
    69   108   107    1
    70    33    31   ar
    71   103   102    2
    72    90    89    1
    73    29    28    2
    74   111   112    1
    75    44    47    1
    76    44    45    1
    77    87    88    2
    78    87    86    1
    79    31    32   ar
    80    28    27    1
    81    89    86    1
    82    89    91    1
    83    47    49    1
    84    95    94    2
    85    12    13    2
    86    27    26    1
    87   107   102   am
    88   102   101    1
    89    86    85    1
    90   112   113    2
    91   112   114   am
    92    25    23   am
    93    45    46    2
    94    45    51   am
    95    92    93    1
    96    94   100   am
    97    94    93    1
    98    51    52    1
    99   101   100    1
   100   101   104    1
   101    24    23    2
   102    23    22    1
   103   100   106    1
   104    93    96    1
   105    52    55    1
   106    52    53    1
   107    55    56    1
   108   104   105    1
   109    96    97    1
   110    18    19    1
   111    58    56   am
   112    19    22    1
   113    19    20    1
   114    79    77   ar
   115    79    80   ar
   116    77    76   ar
   117    82    80   ar
   118    82    84   ar
   119    80    78   ar
   120   106   105    1
   121    56    57    2
   122    76    78   ar
   123    76    75    1
   124    84    83   ar
   125    78    81   ar
   126    53    54    2
   127    75    72    1
   128    97    98   ar
   129    97    99   ar
   130    83    81   ar
   131    20    21    2
   132    72    73    1
   133    72    71    1
   134    66    68   ar
   135    66    64   ar
   136    74    73    1
   137    68    69   ar
   138    71    61   am
   139    63    64    1
   140    63    60    1
   141    64    65   ar
   142    69    70    1
   143    69    67   ar
   144    61    60    1
   145    61    62    2
   146    59    60    1
   147    65    67   ar
