@<TRIPOS>MOLECULE
tmp/1bbpD00.pdb
 238 236 0 0 0
SMALL
GASTEIGER

@<TRIPOS>ATOM
      1  N         49.1100   41.4950   74.9530 N.3    28  GLU28      -0.1245
      2  CA        48.1580   41.6460   73.8700 C.3    28  GLU28       0.1567
      3  C         47.6200   40.3070   73.4110 C.2    28  GLU28       0.2260
      4  O         48.2910   39.5870   72.6820 O.2    28  GLU28      -0.2867
      5  CB        48.5230   42.6050   72.7230 C.3    28  GLU28       0.0388
      6  CG        49.6250   42.0620   71.8370 C.3    28  GLU28       0.1160
      7  CD        49.5220   42.6170   70.4210 C.2    28  GLU28       0.3649
      8  OE1       49.0580   43.7690   70.2030 O.co2  28  GLU28      -0.2457
      9  OE2       49.9510   41.8670   69.5140 O.co2  28  GLU28      -0.2457
     10  N         48.3920   44.5820   61.7450 N.3    34  ASN34      -0.1225
     11  CA        48.8640   45.8740   61.2520 C.3    34  ASN34       0.1785
     12  C         50.3230   45.7640   60.8520 C.2    34  ASN34       0.2598
     13  O         50.9260   44.7130   61.0480 O.2    34  ASN34      -0.2718
     14  CB        48.6320   47.0830   62.1900 C.3    34  ASN34       0.1169
     15  CG        49.3430   46.8670   63.5140 C.2    34  ASN34       0.2627
     16  OD1       50.5690   46.9350   63.5810 O.2    34  ASN34      -0.2716
     17  ND2       48.5450   46.5910   64.5330 N.am   34  ASN34      -0.0877
     18  N         50.7760   46.7620   60.1330 N.am   35  SER35      -0.1938
     19  CA        52.0730   46.6190   59.5000 C.3    35  SER35       0.2055
     20  C         53.1940   46.8600   60.4950 C.2    35  SER35       0.2643
     21  O         54.2920   46.3440   60.3180 O.2    35  SER35      -0.2714
     22  CB        52.1980   47.6370   58.3650 C.3    35  SER35       0.2130
     23  OG        51.0560   47.5220   57.5060 O.3    35  SER35      -0.2179
     24  N         52.9360   47.6790   61.4780 N.am   36  VAL36      -0.1963
     25  CA        53.9800   47.8970   62.4810 C.3    36  VAL36       0.1727
     26  C         54.2630   46.6160   63.2780 C.2    36  VAL36       0.2616
     27  O         55.4200   46.2980   63.5480 O.2    36  VAL36      -0.2715
     28  CB        53.5580   49.0860   63.3660 C.3    36  VAL36       0.0290
     29  CG1       54.1000   48.9860   64.7950 C.3    36  VAL36       0.0023
     30  CG2       53.9000   50.4320   62.6940 C.3    36  VAL36       0.0023
     31  N         53.2450   45.8250   63.5110 N.am   37  GLU37      -0.1977
     32  CA        53.3900   44.6600   64.3810 C.3    37  GLU37       0.1602
     33  C         53.5810   43.3440   63.6420 C.2    37  GLU37       0.2287
     34  O         53.6270   42.2910   64.2740 O.2    37  GLU37      -0.2864
     35  CB        52.1630   44.5500   65.3040 C.3    37  GLU37       0.0415
     36  CG        52.0960   45.7100   66.3300 C.3    37  GLU37       0.1163
     37  CD        50.9650   45.4380   67.3230 C.2    37  GLU37       0.3649
     38  OE1       51.0800   44.4210   68.0570 O.co2  37  GLU37      -0.2457
     39  OE2       49.9690   46.2120   67.3660 O.co2  37  GLU37      -0.2457
     40  N         53.2890   39.6140   72.5200 N.3    43  GLY43      -0.1210
     41  CA        53.3700   41.0760   72.6440 C.3    43  GLY43       0.1956
     42  C         52.7250   41.5720   73.9340 C.2    43  GLY43       0.2612
     43  O         51.8260   40.9230   74.4560 O.2    43  GLY43      -0.2717
     44  N         53.1780   42.7150   74.3980 N.am   44  TRP44      -0.1962
     45  CA        52.6780   43.2780   75.6700 C.3    44  TRP44       0.1771
     46  C         52.9400   44.7740   75.7350 C.2    44  TRP44       0.2619
     47  O         53.7990   45.2880   75.0270 O.2    44  TRP44      -0.2715
     48  CB        53.2530   42.5750   76.9430 C.3    44  TRP44       0.0590
     49  CG        54.6890   43.0080   77.3220 C.ar   44  TRP44       0.0006
     50  CD1       55.1000   44.0110   78.1440 C.ar   44  TRP44       0.0946
     51  CD2       55.8600   42.4280   76.8450 C.ar   44  TRP44       0.0152
     52  NE1       56.4940   44.0590   78.1720 N.ar   44  TRP44      -0.2442
     53  CE2       56.9350   43.1330   77.4160 C.ar   44  TRP44       0.0810
     54  CE3       56.0500   41.3870   75.9620 C.ar   44  TRP44       0.0012
     55  CZ2       58.2500   42.8250   77.1290 C.ar   44  TRP44       0.0191
     56  CZ3       57.3800   41.0750   75.6550 C.ar   44  TRP44       0.0001
     57  CH2       58.4470   41.7720   76.2220 C.ar   44  TRP44       0.0015
     58  N         52.2370   45.4240   76.6210 N.am   45  ALA45      -0.1977
     59  CA        52.4670   46.8380   76.8600 C.3    45  ALA45       0.1597
     60  C         52.7370   47.0560   78.3480 C.2    45  ALA45       0.2287
     61  O         52.3950   46.2220   79.1860 O.2    45  ALA45      -0.2864
     62  CB        51.2400   47.6410   76.4470 C.3    45  ALA45       0.0319
     63  N         52.5220   50.2960   81.1910 N.3    47  TYR47      -0.1241
     64  CA        52.1470   51.6840   81.5170 C.3    47  TYR47       0.1605
     65  C         52.6990   52.0880   82.8850 C.2    47  TYR47       0.2264
     66  O         52.5200   51.3840   83.8780 O.2    47  TYR47      -0.2867
     67  CB        50.6140   51.8030   81.5520 C.3    47  TYR47       0.0534
     68  CG        50.0180   51.3490   80.2110 C.ar   47  TYR47      -0.0201
     69  CD1       50.4570   51.9220   79.0340 C.ar   47  TYR47      -0.0009
     70  CD2       49.1060   50.3240   80.1820 C.ar   47  TYR47      -0.0009
     71  CE1       49.9690   51.4790   77.8090 C.ar   47  TYR47       0.0417
     72  CE2       48.6070   49.8710   78.9660 C.ar   47  TYR47       0.0417
     73  CZ        49.0380   50.4510   77.7830 C.ar   47  TYR47       0.1957
     74  OH        48.5210   50.0200   76.5950 O.3    47  TYR47      -0.2866
     75  N         55.6210   49.4600   74.3650 N.3    58  ASN58      -0.1225
     76  CA        54.9140   48.3550   73.6860 C.3    58  ASN58       0.1785
     77  C         55.9650   47.4230   73.1300 C.2    58  ASN58       0.2597
     78  O         56.8990   47.9210   72.5100 O.2    58  ASN58      -0.2718
     79  CB        54.1650   48.9140   72.4700 C.3    58  ASN58       0.1169
     80  CG        53.0900   49.8890   72.9240 C.2    58  ASN58       0.2627
     81  OD1       52.7930   50.8640   72.2370 O.2    58  ASN58      -0.2716
     82  ND2       52.5490   49.6180   74.0830 N.am   58  ASN58      -0.0877
     83  N         55.8540   46.1430   73.4240 N.am   59  TYR59      -0.1962
     84  CA        56.8820   45.1910   72.9830 C.3    59  TYR59       0.1771
     85  C         56.2680   44.0410   72.2110 C.2    59  TYR59       0.2619
     86  O         55.2030   43.5730   72.6040 O.2    59  TYR59      -0.2715
     87  CB        57.6280   44.5180   74.1560 C.3    59  TYR59       0.0574
     88  CG        58.4290   45.5010   75.0310 C.ar   59  TYR59      -0.0198
     89  CD1       59.7930   45.6070   74.8980 C.ar   59  TYR59      -0.0009
     90  CD2       57.7740   46.2200   76.0050 C.ar   59  TYR59      -0.0009
     91  CE1       60.5040   46.4550   75.7330 C.ar   59  TYR59       0.0417
     92  CE2       58.4730   47.0670   76.8470 C.ar   59  TYR59       0.0417
     93  CZ        59.8320   47.1850   76.7050 C.ar   59  TYR59       0.1957
     94  OH        60.5070   48.0300   77.5360 O.3    59  TYR59      -0.2866
     95  N         57.1500   43.3960   71.4710 N.am   60  HIS60      -0.1973
     96  CA        56.9880   42.0100   70.9860 C.3    60  HIS60       0.1656
     97  C         58.3470   41.3900   70.6710 C.2    60  HIS60       0.2291
     98  O         59.3880   42.0100   70.9140 O.2    60  HIS60      -0.2864
     99  CB        55.9690   41.8160   69.8250 C.3    60  HIS60       0.0771
    100  CG        56.3270   42.5140   68.4920 C.ar   60  HIS60       0.0820
    101  ND1       55.3190   42.9610   67.6260 N.ar   60  HIS60      -0.2267
    102  CD2       57.5110   42.7750   67.9260 C.ar   60  HIS60       0.1154
    103  CE1       55.9440   43.5280   66.4990 C.ar   60  HIS60       0.1986
    104  NE2       57.3140   43.4030   66.6930 N.ar   60  HIS60      -0.2212
    105  N         61.6990   43.9570   70.1650 N.3    67  TYR67      -0.1227
    106  CA        61.4270   45.2180   69.4700 C.3    67  TYR67       0.1736
    107  C         60.3790   45.9370   70.3020 C.2    67  TYR67       0.2595
    108  O         59.5930   45.2340   70.9290 O.2    67  TYR67      -0.2718
    109  CB        60.8360   44.9450   68.0670 C.3    67  TYR67       0.0548
    110  CG        61.7460   44.1240   67.1230 C.ar   67  TYR67      -0.0200
    111  CD1       61.8330   42.7510   67.2450 C.ar   67  TYR67      -0.0009
    112  CD2       62.4200   44.7600   66.1050 C.ar   67  TYR67      -0.0009
    113  CE1       62.6030   42.0050   66.3590 C.ar   67  TYR67       0.0417
    114  CE2       63.1950   44.0280   65.2100 C.ar   67  TYR67       0.0417
    115  CZ        63.2800   42.6480   65.3400 C.ar   67  TYR67       0.1957
    116  OH        64.0560   41.9300   64.4750 O.3    67  TYR67      -0.2866
    117  N         60.4940   47.2610   70.3920 N.am   68  PHE68      -0.1962
    118  CA        59.5980   48.1150   71.2080 C.3    68  PHE68       0.1771
    119  C         59.5110   49.5670   70.7350 C.2    68  PHE68       0.2619
    120  O         60.4060   50.0870   70.0730 O.2    68  PHE68      -0.2715
    121  CB        59.9480   48.1230   72.7220 C.3    68  PHE68       0.0574
    122  CG        61.2400   48.8860   73.0730 C.ar   68  PHE68      -0.0200
    123  CD1       62.4650   48.2650   72.9560 C.ar   68  PHE68      -0.0042
    124  CD2       61.1690   50.1900   73.5170 C.ar   68  PHE68      -0.0042
    125  CE1       63.6300   48.9570   73.2630 C.ar   68  PHE68      -0.0003
    126  CE2       62.3260   50.8930   73.8240 C.ar   68  PHE68      -0.0003
    127  CZ        63.5640   50.2750   73.6970 C.ar   68  PHE68      -0.0000
    128  N         58.4960   50.2250   71.2230 N.am   69  ILE69      -0.1977
    129  CA        58.3940   51.6730   71.0790 C.3    69  ILE69       0.1596
    130  C         58.0560   52.2340   72.4590 C.2    69  ILE69       0.2287
    131  O         57.3920   51.5670   73.2550 O.2    69  ILE69      -0.2864
    132  CB        57.3250   52.0970   70.0320 C.3    69  ILE69       0.0276
    133  CG1       57.4870   53.5800   69.5990 C.3    69  ILE69       0.0022
    134  CG2       55.8830   51.7860   70.4830 C.3    69  ILE69       0.0022
    135  CD1       56.5310   53.9950   68.4700 C.3    69  ILE69       0.0001
    136  N         47.4370   58.8460   72.8650 N.3    86  HIS86      -0.1241
    137  CA        48.6590   58.0660   72.8880 C.3    86  HIS86       0.1621
    138  C         49.6670   58.7440   71.9590 C.2    86  HIS86       0.2264
    139  O         49.4660   58.8180   70.7440 O.2    86  HIS86      -0.2867
    140  CB        48.3840   56.6000   72.4630 C.3    86  HIS86       0.0745
    141  CG        48.1030   55.8680   73.4010 C.ar   86  HIS86       0.0817
    142  ND1       49.0550   55.0870   73.9300 N.ar   86  HIS86      -0.2268
    143  CD2       46.9680   55.8850   73.7940 C.ar   86  HIS86       0.1154
    144  CE1       48.3820   54.5290   74.8560 C.ar   86  HIS86       0.1986
    145  NE2       47.1000   55.0140   74.7970 N.ar   86  HIS86      -0.2212
    146  N         52.8830   59.0880   70.2170 N.3    88  LEU88      -0.1245
    147  CA        53.9740   58.2600   69.7040 C.3    88  LEU88       0.1561
    148  C         54.5220   58.9140   68.4460 C.2    88  LEU88       0.2260
    149  O         53.7730   59.5760   67.7360 O.2    88  LEU88      -0.2867
    150  CB        53.4160   56.9000   69.2690 C.3    88  LEU88       0.0270
    151  CG        52.8210   56.0580   70.4110 C.3    88  LEU88       0.0019
    152  CD1       51.9250   54.9570   69.8390 C.3    88  LEU88       0.0001
    153  CD2       53.9100   55.4780   71.3290 C.3    88  LEU88       0.0001
    154  N         56.0380   58.0720   64.6500 N.3    90  TYR90      -0.1241
    155  CA        56.2950   57.2060   63.4880 C.3    90  TYR90       0.1605
    156  C         56.6500   58.1010   62.3060 C.2    90  TYR90       0.2264
    157  O         55.9730   59.1070   62.1030 O.2    90  TYR90      -0.2867
    158  CB        55.0340   56.3870   63.1160 C.3    90  TYR90       0.0534
    159  CG        54.6450   55.3110   64.1610 C.ar   90  TYR90      -0.0201
    160  CD1       53.7160   55.5910   65.1490 C.ar   90  TYR90      -0.0009
    161  CD2       55.2070   54.0540   64.0780 C.ar   90  TYR90      -0.0009
    162  CE1       53.3480   54.6130   66.0640 C.ar   90  TYR90       0.0417
    163  CE2       54.8440   53.0690   64.9830 C.ar   90  TYR90       0.0417
    164  CZ        53.9150   53.3580   65.9730 C.ar   90  TYR90       0.1957
    165  OH        53.5810   52.3960   66.8680 O.3    90  TYR90      -0.2866
    166  N         47.2710   60.4640   69.0990 N.3    97  ASN97      -0.1240
    167  CA        46.3350   59.4060   68.4180 C.3    97  ASN97       0.1653
    168  C         45.2990   59.0630   69.4760 C.2    97  ASN97       0.2266
    169  O         45.6900   58.6480   70.5580 O.2    97  ASN97      -0.2867
    170  CB        46.9880   58.1240   67.9260 C.3    97  ASN97       0.1155
    171  CG        48.2150   58.4080   67.0710 C.2    97  ASN97       0.2627
    172  OD1       48.0820   58.8010   65.9180 O.2    97  ASN97      -0.2716
    173  ND2       49.4210   58.2400   67.5820 N.am   97  ASN97      -0.0877
    174  N         42.9050   56.7520   71.3220 N.3    99  PHE99      -0.1241
    175  CA        42.6460   55.3390   71.5890 C.3    99  PHE99       0.1605
    176  C         41.3560   55.2710   72.4060 C.2    99  PHE99       0.2264
    177  O         41.2020   56.0830   73.3080 O.2    99  PHE99      -0.2867
    178  CB        43.8400   54.8410   72.4150 C.3    99  PHE99       0.0534
    179  CG        43.6490   53.4120   72.9420 C.ar   99  PHE99      -0.0203
    180  CD1       43.8930   52.3440   72.1150 C.ar   99  PHE99      -0.0042
    181  CD2       43.2730   53.2050   74.2540 C.ar   99  PHE99      -0.0042
    182  CE1       43.7260   51.0520   72.5840 C.ar   99  PHE99      -0.0003
    183  CE2       43.0980   51.9170   74.7300 C.ar   99  PHE99      -0.0003
    184  CZ        43.3150   50.8380   73.8910 C.ar   99  PHE99      -0.0000
    185  N         41.7110   52.2710   67.6940 N.3   114  TYR114     -0.1241
    186  CA        42.2680   53.4740   67.0610 C.3   114  TYR114      0.1605
    187  C         41.9110   53.4750   65.5660 C.2   114  TYR114      0.2264
    188  O         41.9610   52.4510   64.8880 O.2   114  TYR114     -0.2867
    189  CB        43.8120   53.5290   67.3160 C.3   114  TYR114      0.0534
    190  CG        44.6290   54.4050   66.3330 C.ar  114  TYR114     -0.0201
    191  CD1       44.4640   55.7750   66.2930 C.ar  114  TYR114     -0.0009
    192  CD2       45.5310   53.8060   65.4740 C.ar  114  TYR114     -0.0009
    193  CE1       45.1790   56.5450   65.3700 C.ar  114  TYR114      0.0417
    194  CE2       46.2580   54.5610   64.5530 C.ar  114  TYR114      0.0417
    195  CZ        46.0720   55.9320   64.4910 C.ar  114  TYR114      0.1957
    196  OH        46.7660   56.6810   63.5670 O.3   114  TYR114     -0.2866
    197  N         42.7460   55.1730   61.8970 N.3   116  LYS116     -0.1245
    198  CA        43.6810   56.0090   61.1430 C.3   116  LYS116      0.1561
    199  C         43.0800   56.4610   59.8020 C.2   116  LYS116      0.2260
    200  O         42.8980   55.6490   58.8930 O.2   116  LYS116     -0.2867
    201  CB        44.9570   55.1730   60.8980 C.3   116  LYS116      0.0271
    202  CG        45.9950   55.9790   60.1140 C.3   116  LYS116      0.0035
    203  CD        47.2360   55.1270   59.8910 C.3   116  LYS116      0.0206
    204  CE        48.3270   55.9330   59.1670 C.3   116  LYS116      0.1093
    205  NZ        49.3530   54.9830   58.7540 N.3   116  LYS116     -0.1314
    206  N         42.3370   49.8250   63.8330 N.3   127  PHE127     -0.1241
    207  CA        43.2790   49.1710   64.7500 C.3   127  PHE127      0.1605
    208  C         42.5460   48.7780   66.0390 C.2   127  PHE127      0.2264
    209  O         41.8670   49.6070   66.6380 O.2   127  PHE127     -0.2867
    210  CB        44.3170   50.0360   65.1810 C.3   127  PHE127      0.0534
    211  CG        45.3240   50.4960   64.2220 C.ar  127  PHE127     -0.0203
    212  CD1       44.9990   51.4280   63.2530 C.ar  127  PHE127     -0.0042
    213  CD2       46.5760   49.9470   64.3790 C.ar  127  PHE127     -0.0042
    214  CE1       46.0150   51.8910   62.4270 C.ar  127  PHE127     -0.0003
    215  CE2       47.6020   50.4240   63.5760 C.ar  127  PHE127     -0.0003
    216  CZ        47.3250   51.4040   62.6020 C.ar  127  PHE127     -0.0000
    217  N         42.8550   46.2770   69.6430 N.3   129  TRP129     -0.1241
    218  CA        43.6800   45.5080   70.5800 C.3   129  TRP129      0.1605
    219  C         42.7870   45.0040   71.7020 C.2   129  TRP129      0.2264
    220  O         42.0100   45.7880   72.2540 O.2   129  TRP129     -0.2867
    221  CB        44.7410   46.4130   71.2390 C.3   129  TRP129      0.0550
    222  CG        45.8430   46.7930   70.2430 C.ar  129  TRP129      0.0003
    223  CD1       46.9100   46.0770   69.8470 C.ar  129  TRP129      0.0946
    224  CD2       45.8970   47.9880   69.5110 C.ar  129  TRP129      0.0152
    225  NE1       47.6690   46.8300   68.9150 N.ar  129  TRP129     -0.2442
    226  CE2       47.0850   47.9580   68.7450 C.ar  129  TRP129      0.0810
    227  CE3       45.0130   49.0670   69.4550 C.ar  129  TRP129      0.0012
    228  CZ2       47.4680   49.0310   67.9470 C.ar  129  TRP129      0.0191
    229  CZ3       45.3860   50.1350   68.6330 C.ar  129  TRP129      0.0001
    230  CH2       46.5900   50.1280   67.9110 C.ar  129  TRP129      0.0015
    231  N         43.6590   43.7230   75.3180 N.3   131  LEU131     -0.1245
    232  CA        44.6890   43.7580   76.3900 C.3   131  LEU131      0.1561
    233  C         44.1840   43.0020   77.6030 C.2   131  LEU131      0.2260
    234  O         43.0010   43.0680   77.9420 O.2   131  LEU131     -0.2867
    235  CB        44.9990   45.1840   76.8720 C.3   131  LEU131      0.0270
    236  CG        45.6760   45.9980   75.7560 C.3   131  LEU131      0.0019
    237  CD1       45.9360   47.4570   76.1740 C.3   131  LEU131      0.0001
    238  CD2       46.9610   45.2930   75.2820 C.3   131  LEU131      0.0001
@<TRIPOS>BOND
     1    23    22    1
     2    22    19    1
     3   205   204    1
     4   200   199    2
     5   204   203    1
     6    19    18    1
     7    19    20    1
     8   199   198    1
     9   203   202    1
    10   202   201    1
    11    18    12   am
    12    21    20    2
    13    20    24   am
    14    12    13    2
    15    12    11    1
    16   201   198    1
    17   198   197    1
    18    11    10    1
    19    11    14    1
    20    24    25    1
    21   157   156    2
    22    14    15    1
    23   156   155    1
    24   214   216   ar
    25   214   212   ar
    26    25    26    1
    27    25    28    1
    28   216   215   ar
    29    30    28    1
    30   158   155    1
    31   158   159    1
    32   212   211   ar
    33    26    31   am
    34    26    27    2
    35    28    29    1
    36   155   154    1
    37    31    32    1
    38    15    16    2
    39    15    17   am
    40   196   195    1
    41   215   213   ar
    42    33    34    2
    43    33    32    1
    44   206   207    1
    45   161   159   ar
    46   161   163   ar
    47   159   160   ar
    48   211   213   ar
    49   211   210    1
    50    32    35    1
    51   116   115    1
    52   195   194   ar
    53   195   193   ar
    54   194   192   ar
    55   207   210    1
    56   207   208    1
    57   188   187    2
    58   163   164   ar
    59   160   162   ar
    60   114   115   ar
    61   114   112   ar
    62    35    36    1
    63   115   113   ar
    64   193   191   ar
    65   192   190   ar
    66   187   186    1
    67   172   171    2
    68   164   162   ar
    69   164   165    1
    70   208   209    2
    71   112   110   ar
    72   191   190   ar
    73    36    37    1
    74   190   189    1
    75   113   111   ar
    76   103   104   ar
    77   103   101   ar
    78   104   102   ar
    79   186   189    1
    80   186   185    1
    81   171   173   am
    82   171   170    1
    83   110   111   ar
    84   110   109    1
    85    37    39   ar
    86    37    38   ar
    87   101   100   ar
    88   149   148    2
    89   230   228   ar
    90   230   229   ar
    91   170   167    1
    92   102   100   ar
    93   228   226   ar
    94   109   106    1
    95   167   166    1
    96   167   168    1
    97   148   147    1
    98   135   133    1
    99   100    99    1
   100   229   227   ar
   101   226   225   ar
   102   226   224   ar
   103   225   223   ar
   104   150   147    1
   105   150   151    1
   106   227   224   ar
   107   106   105    1
   108   106   107    1
   109   168   169    2
   110   224   222   ar
   111     9     7   ar
   112   133   132    1
   113   217   218    1
   114   147   146    1
   115    99    96    1
   116   152   151    1
   117   223   222   ar
   118   132   134    1
   119   132   129    1
   120   120   119    2
   121     8     7   ar
   122   222   221    1
   123   107   117   am
   124   107   108    2
   125   117   118    1
   126   151   153    1
   127     7     6    1
   128   218   221    1
   129   218   219    1
   130    97    98    2
   131    97    96    1
   132   119   118    1
   133   119   128   am
   134   139   138    2
   135    96    95    1
   136   129   128    1
   137   129   130    1
   138   118   121    1
   139   174   175    1
   140    95    85   am
   141   175   176    1
   142   175   178    1
   143   219   220    2
   144     6     5    1
   145   138   137    1
   146   180   182   ar
   147   180   179   ar
   148    85    86    2
   149    85    84    1
   150    81    80    2
   151   176   177    2
   152   178   179    1
   153   130   131    2
   154   140   137    1
   155   140   141    1
   156    79    80    1
   157    79    76    1
   158    78    77    2
   159    40    41    1
   160   182   184   ar
   161    41    42    1
   162     4     3    2
   163   121   122    1
   164     5     2    1
   165   136   137    1
   166    80    82   am
   167   179   181   ar
   168   123   122   ar
   169   123   125   ar
   170    84    83    1
   171    84    87    1
   172   122   124   ar
   173    77    83   am
   174    77    76    1
   175   125   127   ar
   176   141   143   ar
   177   141   142   ar
   178     3     2    1
   179   124   126   ar
   180    76    75    1
   181   127   126   ar
   182   143   145   ar
   183     2     1    1
   184   184   183   ar
   185   142   144   ar
   186    42    44   am
   187    42    43    2
   188    87    88    1
   189   181   183   ar
   190    44    45    1
   191   145   144   ar
   192    89    88   ar
   193    89    91   ar
   194    47    46    2
   195    88    90   ar
   196   238   236    1
   197   231   232    1
   198    56    54   ar
   199    56    57   ar
   200    45    46    1
   201    45    48    1
   202    91    93   ar
   203    46    58   am
   204   236   237    1
   205   236   235    1
   206    54    51   ar
   207    90    92   ar
   208    57    55   ar
   209   232   235    1
   210   232   233    1
   211    62    59    1
   212    74    73    1
   213    58    59    1
   214    93    92   ar
   215    93    94    1
   216    51    49   ar
   217    51    53   ar
   218    59    60    1
   219    48    49    1
   220    55    53   ar
   221    49    50   ar
   222    53    52   ar
   223   233   234    2
   224    73    71   ar
   225    73    72   ar
   226    71    69   ar
   227    50    52   ar
   228    60    61    2
   229    72    70   ar
   230    69    68   ar
   231    70    68   ar
   232    68    67    1
   233    63    64    1
   234    64    67    1
   235    64    65    1
   236    65    66    2
