@<TRIPOS>MOLECULE
tmp/1bbuA00.pdb
 120 111 0 0 0
SMALL
GASTEIGER

@<TRIPOS>ATOM
      1  N        -14.1870  131.1110   37.1460 N.3   200  GLY200     -0.1210
      2  CA       -15.3380  131.9320   37.5010 C.3   200  GLY200      0.1956
      3  C        -15.4560  132.1600   39.0010 C.2   200  GLY200      0.2611
      4  O        -16.4600  132.6910   39.4730 O.2   200  GLY200     -0.2717
      5  N        -14.4030  131.7720   39.7240 N.am  201  ALA201     -0.1979
      6  CA       -14.2920  131.8710   41.1830 C.3   201  ALA201      0.1597
      7  C        -12.8930  131.3730   41.5750 C.2   201  ALA201      0.2287
      8  O        -12.1520  130.8480   40.7310 O.2   201  ALA201     -0.2864
      9  CB       -15.3470  131.0040   41.8550 C.3   201  ALA201      0.0319
     10  N        -17.6960  127.3630   39.1550 N.3   222  ALA222     -0.1245
     11  CA       -18.6840  128.4070   38.8380 C.3   222  ALA222      0.1562
     12  C        -18.9660  128.3380   37.3460 C.2   222  ALA222      0.2260
     13  O        -18.1620  127.8090   36.5810 O.2   222  ALA222     -0.2867
     14  CB       -18.1520  129.8070   39.1890 C.3   222  ALA222      0.0290
     15  N        -19.6980  131.1780   35.5970 N.3   224  GLU224     -0.1245
     16  CA       -19.5210  132.5630   35.1400 C.3   224  GLU224      0.1567
     17  C        -19.1180  132.7770   33.6750 C.2   224  GLU224      0.2260
     18  O        -19.8310  133.4490   32.9250 O.2   224  GLU224     -0.2867
     19  CB       -18.5560  133.3120   36.0590 C.3   224  GLU224      0.0388
     20  CG       -18.1820  134.6970   35.5630 C.3   224  GLU224      0.1160
     21  CD       -17.9360  135.6810   36.6860 C.2   224  GLU224      0.3649
     22  OE1      -18.7140  135.6690   37.6530 O.co2 224  GLU224     -0.2457
     23  OE2      -16.9880  136.4850   36.6010 O.co2 224  GLU224     -0.2457
     24  N        -16.4850  122.6480   44.9760 N.3   246  ARG246     -0.1245
     25  CA       -15.2050  123.1620   45.4110 C.3   246  ARG246      0.1563
     26  C        -14.5880  122.1020   46.3120 C.2   246  ARG246      0.2260
     27  O        -15.2000  121.6940   47.2940 O.2   246  ARG246     -0.2867
     28  CB       -15.4040  124.5230   46.1050 C.3   246  ARG246      0.0307
     29  CG       -16.0850  125.5480   45.1710 C.3   246  ARG246      0.0489
     30  CD       -16.2280  126.9900   45.6990 C.3   246  ARG246      0.2205
     31  NE       -17.0860  127.7840   44.8000 N.pl3 246  ARG246     -0.0865
     32  CZ       -17.3710  129.0790   44.9520 C.cat 246  ARG246      0.5346
     33  NH1      -16.8410  129.7690   45.9510 N.pl3 246  ARG246      0.1354
     34  NH2      -18.2300  129.6770   44.1310 N.pl3 246  ARG246      0.1354
     35  N        -25.7230  127.9820   44.0480 N.3   260  MET260     -0.1245
     36  CA       -25.4710  129.3840   43.7480 C.3   260  MET260      0.1570
     37  C        -26.3650  129.8930   42.6080 C.2   260  MET260      0.2261
     38  O        -26.7630  129.1290   41.7210 O.2   260  MET260     -0.2867
     39  CB       -24.0030  129.5600   43.3610 C.3   260  MET260      0.0387
     40  CG       -23.5230  131.0100   43.3190 C.3   260  MET260      0.0595
     41  SD       -22.8210  131.5490   44.8940 S.3   260  MET260     -0.1393
     42  CE       -21.1660  130.7770   44.8270 C.3   260  MET260      0.0692
     43  N        -26.3940  132.7920   39.6310 N.3   262  GLU262     -0.1245
     44  CA       -25.7060  133.8680   38.9210 C.3   262  GLU262      0.1567
     45  C        -26.7160  134.5180   37.9920 C.2   262  GLU262      0.2260
     46  O        -27.6360  133.8640   37.4940 O.2   262  GLU262     -0.2867
     47  CB       -24.5010  133.3630   38.1320 C.3   262  GLU262      0.0388
     48  CG       -23.3810  132.8300   39.0050 C.3   262  GLU262      0.1160
     49  CD       -22.0270  132.8650   38.3190 C.2   262  GLU262      0.3649
     50  OE1      -21.8800  133.6400   37.3480 O.co2 262  GLU262     -0.2457
     51  OE2      -21.1010  132.1360   38.7580 O.co2 262  GLU262     -0.2457
     52  N        -26.9130  137.8770   35.0360 N.3   264  TYR264     -0.1241
     53  CA       -26.1880  138.8890   34.2930 C.3   264  TYR264      0.1605
     54  C        -27.1640  139.7720   33.5520 C.2   264  TYR264      0.2264
     55  O        -28.1910  139.3000   33.0600 O.2   264  TYR264     -0.2867
     56  CB       -25.2320  138.2220   33.3160 C.3   264  TYR264      0.0534
     57  CG       -24.0910  137.5330   34.0110 C.ar  264  TYR264     -0.0201
     58  CD1      -24.2530  136.2760   34.5820 C.ar  264  TYR264     -0.0009
     59  CD2      -22.8630  138.1670   34.1580 C.ar  264  TYR264     -0.0009
     60  CE1      -23.2160  135.6780   35.2940 C.ar  264  TYR264      0.0417
     61  CE2      -21.8270  137.5710   34.8670 C.ar  264  TYR264      0.0417
     62  CZ       -22.0140  136.3330   35.4350 C.ar  264  TYR264      0.1957
     63  OH       -21.0080  135.7740   36.1880 O.3   264  TYR264     -0.2866
     64  N        -20.7790  136.2490   54.1190 N.3   405  GLU405     -0.1245
     65  CA       -20.9190  136.7290   52.7340 C.3   405  GLU405      0.1567
     66  C        -22.0840  136.0300   52.0330 C.2   405  GLU405      0.2260
     67  O        -22.0450  134.8260   51.7860 O.2   405  GLU405     -0.2867
     68  CB       -19.6520  136.4790   51.9180 C.3   405  GLU405      0.0388
     69  CG       -19.7230  137.1210   50.5440 C.3   405  GLU405      0.1160
     70  CD       -18.6960  136.5730   49.5730 C.2   405  GLU405      0.3649
     71  OE1      -17.4830  136.6260   49.8820 O.co2 405  GLU405     -0.2457
     72  OE2      -19.1090  136.0940   48.4910 O.co2 405  GLU405     -0.2457
     73  N        -22.0740  138.6210   45.8980 N.3   408  ASN408     -0.1225
     74  CA       -20.8620  139.0210   45.1920 C.3   408  ASN408      0.1785
     75  C        -21.2670  139.5310   43.8100 C.2   408  ASN408      0.2598
     76  O        -22.0050  138.8520   43.0940 O.2   408  ASN408     -0.2718
     77  CB       -19.9410  137.8090   45.0220 C.3   408  ASN408      0.1169
     78  CG       -18.6910  138.1300   44.2130 C.2   408  ASN408      0.2627
     79  OD1      -18.2990  139.3020   44.0800 O.2   408  ASN408     -0.2716
     80  ND2      -18.0520  137.0920   43.6670 N.am  408  ASN408     -0.0877
     81  N        -20.7770  140.7040   43.4210 N.am  409  GLY409     -0.1942
     82  CA       -21.1320  141.2520   42.1210 C.3   409  GLY409      0.2014
     83  C        -20.1910  142.3340   41.6150 C.2   409  GLY409      0.2638
     84  O        -19.5780  143.0500   42.4090 O.2   409  GLY409     -0.2714
     85  N        -20.0630  142.4580   40.2950 N.am  410  PHE410     -0.1973
     86  CA       -19.2560  143.5260   39.7050 C.3   410  PHE410      0.1639
     87  C        -19.6440  143.9380   38.2910 C.2   410  PHE410      0.2290
     88  O        -20.4410  143.2640   37.6210 O.2   410  PHE410     -0.2864
     89  CB       -17.7570  143.2020   39.7570 C.3   410  PHE410      0.0560
     90  CG       -17.4200  141.7800   39.4420 C.ar  410  PHE410     -0.0200
     91  CD1      -17.6490  141.2520   38.1860 C.ar  410  PHE410     -0.0042
     92  CD2      -16.8480  140.9650   40.4110 C.ar  410  PHE410     -0.0042
     93  CE1      -17.3140  139.9330   37.9000 C.ar  410  PHE410     -0.0003
     94  CE2      -16.5080  139.6430   40.1320 C.ar  410  PHE410     -0.0003
     95  CZ       -16.7430  139.1290   38.8760 C.ar  410  PHE410     -0.0000
     96  N        -18.7120  143.8750   34.8370 N.3   412  GLU412     -0.1245
     97  CA       -17.9020  142.8690   34.1360 C.3   412  GLU412      0.1567
     98  C        -16.7360  143.4090   33.3010 C.2   412  GLU412      0.2260
     99  O        -16.8870  144.3980   32.5780 O.2   412  GLU412     -0.2867
    100  CB       -18.8160  142.0580   33.2330 C.3   412  GLU412      0.0388
    101  CG       -19.9940  141.4870   33.9690 C.3   412  GLU412      0.1160
    102  CD       -19.5650  140.5620   35.0960 C.2   412  GLU412      0.3649
    103  OE1      -18.4360  140.0060   35.0340 O.co2 412  GLU412     -0.2457
    104  OE2      -20.3640  140.3930   36.0450 O.co2 412  GLU412     -0.2457
    105  N        -22.7420  141.5210   36.5940 N.3   457  GLY457     -0.1210
    106  CA       -23.1200  140.1880   37.0310 C.3   457  GLY457      0.1956
    107  C        -23.1990  140.0670   38.5410 C.2   457  GLY457      0.2612
    108  O        -22.3970  140.6720   39.2490 O.2   457  GLY457     -0.2717
    109  N        -24.1170  139.2290   39.0150 N.am  458  LEU458     -0.1965
    110  CA       -24.3720  139.0190   40.4310 C.3   458  LEU458      0.1728
    111  C        -24.4240  137.5400   40.8020 C.2   458  LEU458      0.2616
    112  O        -25.1610  136.7710   40.1890 O.2   458  LEU458     -0.2715
    113  CB       -25.7170  139.6350   40.7820 C.3   458  LEU458      0.0311
    114  CG       -26.1660  139.5010   42.2290 C.3   458  LEU458      0.0022
    115  CD1      -25.1560  140.1880   43.1270 C.3   458  LEU458      0.0001
    116  CD2      -27.5310  140.1320   42.3900 C.3   458  LEU458      0.0001
    117  N        -23.6600  137.1580   41.8210 N.am  459  GLY459     -0.1955
    118  CA       -23.7080  135.8110   42.3680 C.3   459  GLY459      0.1869
    119  C        -24.2770  135.8460   43.7840 C.2   459  GLY459      0.2309
    120  O        -23.9980  136.7670   44.5550 O.2   459  GLY459     -0.2863
@<TRIPOS>BOND
     1    99    98    2
     2    18    17    2
     3    55    54    2
     4   100   101    1
     5   100    97    1
     6    98    97    1
     7    56    57    1
     8    56    53    1
     9    54    53    1
    10    17    16    1
    11   101   102    1
    12    57    59   ar
    13    57    58   ar
    14    97    96    1
    15    59    61   ar
    16    53    52    1
    17    58    60   ar
    18    61    62   ar
    19   103   102   ar
    20   102   104   ar
    21    16    15    1
    22    16    19    1
    23    60    62   ar
    24    62    63    1
    25    20    19    1
    26    20    21    1
    27    13    12    2
    28   105   106    1
    29    23    21   ar
    30    21    22   ar
    31   106   107    1
    32     1     2    1
    33    12    11    1
    34    50    49   ar
    35    46    45    2
    36     2     3    1
    37    88    87    2
    38    93    91   ar
    39    93    95   ar
    40    45    44    1
    41    47    44    1
    42    47    48    1
    43    91    90   ar
    44    87    86    1
    45    49    51   ar
    46    49    48    1
    47   107   109   am
    48   107   108    2
    49    11    10    1
    50    11    14    1
    51    95    94   ar
    52    44    43    1
    53     3     4    2
    54     3     5   am
    55   109   110    1
    56    90    89    1
    57    90    92   ar
    58    86    89    1
    59    86    85    1
    60     5     6    1
    61    94    92   ar
    62   112   111    2
    63    85    83   am
    64   110   113    1
    65   110   111    1
    66     8     7    2
    67   113   114    1
    68   111   117   am
    69     6     7    1
    70     6     9    1
    71    83    82    1
    72    83    84    2
    73    38    37    2
    74   117   118    1
    75    82    81    1
    76   114   116    1
    77   114   115    1
    78   118   119    1
    79    37    36    1
    80    76    75    2
    81    40    39    1
    82    40    41    1
    83    39    36    1
    84    81    75   am
    85    80    78   am
    86    36    35    1
    87   119   120    2
    88    75    74    1
    89    79    78    2
    90    34    32    1
    91    78    77    1
    92    31    32    2
    93    31    30    1
    94    42    41    1
    95    32    33    1
    96    24    25    1
    97    77    74    1
    98    29    30    1
    99    29    28    1
   100    74    73    1
   101    25    28    1
   102    25    26    1
   103    26    27    2
   104    72    70   ar
   105    70    71   ar
   106    70    69    1
   107    69    68    1
   108    67    66    2
   109    68    65    1
   110    66    65    1
   111    65    64    1
