@<TRIPOS>MOLECULE
tmp/1bbzA01.pdb
 89 86 0 0 0
SMALL
GASTEIGER

@<TRIPOS>ATOM
      1  N         -2.3370   19.7000   14.4530 N.3     3  PHE3       -0.1241
      2  CA        -2.7500   21.0810   14.3400 C.3     3  PHE3        0.1605
      3  C         -3.4750   21.2670   13.0090 C.2     3  PHE3        0.2264
      4  O         -3.4320   20.3990   12.1490 O.2     3  PHE3       -0.2867
      5  CB        -1.5190   21.9880   14.3820 C.3     3  PHE3        0.0534
      6  CG        -0.8740   22.0740   15.7330 C.ar    3  PHE3       -0.0203
      7  CD1       -0.3030   20.9540   16.3210 C.ar    3  PHE3       -0.0042
      8  CD2       -0.8350   23.2780   16.4160 C.ar    3  PHE3       -0.0042
      9  CE1        0.2980   21.0350   17.5760 C.ar    3  PHE3       -0.0003
     10  CE2       -0.2380   23.3670   17.6650 C.ar    3  PHE3       -0.0003
     11  CZ         0.3290   22.2400   18.2430 C.ar    3  PHE3       -0.0000
     12  N         -5.1300   27.7950   10.1420 N.3     6  LEU6       -0.1231
     13  CA        -6.2180   28.7700   10.2310 C.3     6  LEU6        0.1693
     14  C         -6.3410   29.5780    8.9320 C.2     6  LEU6        0.2592
     15  O         -7.4350   29.9990    8.5660 O.2     6  LEU6       -0.2718
     16  CB        -5.9780   29.7450   11.3930 C.3     6  LEU6        0.0284
     17  CG        -6.0340   29.2140   12.8230 C.3     6  LEU6        0.0019
     18  CD1       -5.8090   30.3500   13.8080 C.3     6  LEU6        0.0001
     19  CD2       -7.3880   28.5690   13.0520 C.3     6  LEU6        0.0001
     20  N         -5.2200   29.8110    8.2480 N.am    7  TYR7       -0.1976
     21  CA        -5.2130   30.5920    7.0060 C.3     7  TYR7        0.1639
     22  C         -4.2270   29.9840    6.0310 C.2     7  TYR7        0.2290
     23  O         -3.3570   29.1970    6.4250 O.2     7  TYR7       -0.2864
     24  CB        -4.7190   32.0280    7.2550 C.3     7  TYR7        0.0560
     25  CG        -5.0560   32.6220    8.6000 C.ar    7  TYR7       -0.0198
     26  CD1       -6.3510   33.0790    8.8740 C.ar    7  TYR7       -0.0009
     27  CD2       -4.0930   32.7050    9.6080 C.ar    7  TYR7       -0.0009
     28  CE1       -6.6840   33.5980   10.1090 C.ar    7  TYR7        0.0417
     29  CE2       -4.4170   33.2190   10.8580 C.ar    7  TYR7        0.0417
     30  CZ        -5.7240   33.6610   11.0980 C.ar    7  TYR7        0.1957
     31  OH        -6.0870   34.1390   12.3400 O.3     7  TYR7       -0.2866
     32  N         10.0060   24.9580   17.0880 N.3    30  TYR30      -0.1241
     33  CA         9.8630   26.4060   16.9150 C.3    30  TYR30       0.1605
     34  C         11.2240   27.0680   16.8060 C.2    30  TYR30       0.2264
     35  O         12.2260   26.5060   17.2460 O.2    30  TYR30      -0.2867
     36  CB         9.1450   27.0010   18.1280 C.3    30  TYR30       0.0534
     37  CG         7.7720   26.4240   18.3450 C.ar   30  TYR30      -0.0201
     38  CD1        7.5950   25.2590   19.0810 C.ar   30  TYR30      -0.0009
     39  CD2        6.6530   27.0190   17.7730 C.ar   30  TYR30      -0.0009
     40  CE1        6.3350   24.6950   19.2370 C.ar   30  TYR30       0.0417
     41  CE2        5.3980   26.4710   17.9240 C.ar   30  TYR30       0.0417
     42  CZ         5.2450   25.3110   18.6540 C.ar   30  TYR30       0.1957
     43  OH         3.9920   24.7630   18.7940 O.3    30  TYR30      -0.2866
     44  N          9.7400   31.8510   18.7660 N.3    34  GLY34      -0.1225
     45  CA         8.4250   31.2400   18.6290 C.3    34  GLY34       0.1811
     46  C          7.5470   31.6890   17.4610 C.2    34  GLY34       0.2280
     47  O          6.4440   31.1540   17.2800 O.2    34  GLY34      -0.2866
     48  N          3.7270   30.5980   13.2420 N.3    50  SER50      -0.1202
     49  CA         3.1000   29.9360   14.3820 C.3    50  SER50       0.2020
     50  C          1.6640   30.4060   14.6080 C.2    50  SER50       0.2618
     51  O          0.7920   29.6070   14.9440 O.2    50  SER50      -0.2717
     52  CB         3.9290   30.1520   15.6340 C.3    50  SER50       0.2103
     53  OG         5.2060   29.5900   15.4400 O.3    50  SER50      -0.2182
     54  N          1.3990   31.6850   14.3800 N.am   51  ASN51      -0.1974
     55  CA         0.0430   32.1890   14.5890 C.3    51  ASN51       0.1688
     56  C         -0.9370   31.8560   13.4660 C.2    51  ASN51       0.2292
     57  O         -2.0650   32.3490   13.4670 O.2    51  ASN51      -0.2864
     58  CB         0.0380   33.6890   14.8870 C.3    51  ASN51       0.1181
     59  CG         0.6950   34.5010   13.8040 C.2    51  ASN51       0.2629
     60  OD1        0.8580   34.0420   12.6660 O.2    51  ASN51      -0.2716
     61  ND2        1.0680   35.7370   14.1400 N.am   51  ASN51      -0.0877
     62  N         -1.5130   28.6220   12.7880 N.3    53  ILE53      -0.1231
     63  CA        -1.9960   27.2840   13.1180 C.3    53  ILE53       0.1692
     64  C         -2.5880   27.2360   14.5190 C.2    53  ILE53       0.2593
     65  O         -2.3290   28.1200   15.3480 O.2    53  ILE53      -0.2718
     66  CB        -0.8810   26.2160   12.9860 C.3    53  ILE53       0.0266
     67  CG1        0.2170   26.4760   14.0190 C.3    53  ILE53       0.0019
     68  CG2       -0.3060   26.2140   11.5580 C.3    53  ILE53       0.0020
     69  CD1        1.2520   25.3920   14.1020 C.3    53  ILE53       0.0001
     70  N         -3.4380   26.2410   14.7510 N.am   54  THR54      -0.1940
     71  CA        -4.0980   26.0540   16.0550 C.3    54  THR54       0.2013
     72  C         -4.3370   24.5380   16.1940 C.2    54  THR54       0.2484
     73  O         -4.3400   23.8090   15.2030 O.2    54  THR54      -0.2729
     74  CB        -5.4420   26.8440   16.1040 C.3    54  THR54       0.1807
     75  OG1       -5.8350   27.0850   17.4610 O.3    54  THR54      -0.2208
     76  CG2       -6.5470   26.0690   15.3920 C.3    54  THR54       0.0379
     77  N         -4.4760   24.0260   17.4230 N.am   55  PRO55      -0.2726
     78  CA        -4.7040   22.5790   17.5730 C.3    55  PRO55       0.1402
     79  C         -5.9950   22.1030   16.9010 C.2    55  PRO55       0.2269
     80  O         -7.0360   22.7490   17.0100 O.2    55  PRO55      -0.2865
     81  CB        -4.7540   22.4010   19.0930 C.3    55  PRO55       0.0296
     82  CG        -3.8240   23.5050   19.5700 C.3    55  PRO55       0.0237
     83  CD        -4.3020   24.6660   18.7370 C.3    55  PRO55       0.0939
     84  N         -9.9080   22.6100   18.4350 N.3    58  SER58      -0.1217
     85  CA        -9.8270   23.5850   19.5270 C.3    58  SER58       0.1889
     86  C         -9.6080   22.9810   20.9050 C.2    58  SER58       0.2288
     87  O         -8.4500   22.6130   21.1910 O.2    58  SER58      -0.2866
     88  CB       -11.0700   24.4780   19.5260 C.3    58  SER58       0.2089
     89  OG       -11.1030   25.3730   20.5210 O.3    58  SER58      -0.2183
@<TRIPOS>BOND
     1    22    23    2
     2    22    21    1
     3    21    24    1
     4    21    20    1
     5    24    25    1
     6    20    14   am
     7    15    14    2
     8    25    26   ar
     9    25    27   ar
    10    26    28   ar
    11    14    13    1
    12    27    29   ar
    13    28    30   ar
    14    12    13    1
    15    13    16    1
    16    29    30   ar
    17    30    31    1
    18    16    17    1
    19    68    66    1
    20     4     3    2
    21    60    59    2
    22    62    63    1
    23    17    19    1
    24    17    18    1
    25    66    63    1
    26    66    67    1
    27     3     2    1
    28    63    64    1
    29    48    49    1
    30    56    57    2
    31    56    55    1
    32    59    61   am
    33    59    58    1
    34    67    69    1
    35     2     5    1
    36     2     1    1
    37    54    55    1
    38    54    50   am
    39    49    50    1
    40    49    52    1
    41     5     6    1
    42    64    70   am
    43    64    65    2
    44    55    58    1
    45    50    51    2
    46    70    71    1
    47    73    72    2
    48    76    74    1
    49    53    52    1
    50     6     7   ar
    51     6     8   ar
    52    71    74    1
    53    71    72    1
    54    74    75    1
    55    72    77   am
    56     7     9   ar
    57     8    10   ar
    58    34    33    1
    59    34    35    2
    60    79    80    2
    61    79    78    1
    62    33    32    1
    63    33    36    1
    64    47    46    2
    65    77    78    1
    66    77    83    1
    67    46    45    1
    68    78    81    1
    69     9    11   ar
    70    10    11   ar
    71    39    41   ar
    72    39    37   ar
    73    41    42   ar
    74    36    37    1
    75    37    38   ar
    76    84    85    1
    77    45    44    1
    78    42    43    1
    79    42    40   ar
    80    83    82    1
    81    38    40   ar
    82    81    82    1
    83    88    85    1
    84    88    89    1
    85    85    86    1
    86    86    87    2
