@<TRIPOS>MOLECULE
tmp/1bbzC00.pdb
 146 148 0 0 0
SMALL
GASTEIGER

@<TRIPOS>ATOM
      1  N        -17.0320   29.0900   26.0820 N.3     7  TYR7       -0.1227
      2  CA       -17.1010   27.9480   25.1860 C.3     7  TYR7        0.1736
      3  C        -16.1700   26.8530   25.6790 C.2     7  TYR7        0.2595
      4  O        -15.2550   27.1130   26.4720 O.2     7  TYR7       -0.2718
      5  CB       -16.6630   28.3320   23.7660 C.3     7  TYR7        0.0548
      6  CG       -16.9620   29.7540   23.3380 C.ar    7  TYR7       -0.0200
      7  CD1      -18.2310   30.1250   22.9220 C.ar    7  TYR7       -0.0009
      8  CD2      -15.9610   30.7300   23.3460 C.ar    7  TYR7       -0.0009
      9  CE1      -18.5090   31.4370   22.5260 C.ar    7  TYR7        0.0417
     10  CE2      -16.2220   32.0390   22.9530 C.ar    7  TYR7        0.0417
     11  CZ       -17.4980   32.3870   22.5480 C.ar    7  TYR7        0.1957
     12  OH       -17.7830   33.6870   22.1940 O.3     7  TYR7       -0.2866
     13  N        -16.3930   25.6380   25.1830 N.am    8  ASP8       -0.1960
     14  CA       -15.5550   24.4840   25.5370 C.3     8  ASP8        0.1840
     15  C        -14.2490   24.6210   24.7800 C.2     8  ASP8        0.2622
     16  O        -14.2580   24.9890   23.6150 O.2     8  ASP8       -0.2715
     17  CB       -16.1840   23.1600   25.0610 C.3     8  ASP8        0.1450
     18  CG       -17.4620   22.8130   25.7660 C.2     8  ASP8        0.3671
     19  OD1      -17.5840   23.0180   26.9800 O.co2   8  ASP8       -0.2456
     20  OD2      -18.3510   22.2720   25.0850 O.co2   8  ASP8       -0.2456
     21  N        -13.1390   24.2860   25.4280 N.am    9  PHE9       -0.1974
     22  CA       -11.8180   24.3270   24.8060 C.3     9  PHE9        0.1639
     23  C        -11.0890   23.1130   25.3450 C.2     9  PHE9        0.2290
     24  O        -11.0910   22.8740   26.5510 O.2     9  PHE9       -0.2864
     25  CB       -11.0610   25.6020   25.1840 C.3     9  PHE9        0.0560
     26  CG        -9.5750   25.5480   24.8900 C.ar    9  PHE9       -0.0200
     27  CD1       -9.0990   25.6140   23.5840 C.ar    9  PHE9       -0.0042
     28  CD2       -8.6550   25.4260   25.9330 C.ar    9  PHE9       -0.0042
     29  CE1       -7.7100   25.5580   23.3110 C.ar    9  PHE9       -0.0003
     30  CE2       -7.2710   25.3690   25.6770 C.ar    9  PHE9       -0.0003
     31  CZ        -6.7990   25.4340   24.3590 C.ar    9  PHE9       -0.0000
     32  N         -4.3340   20.9320   24.3740 N.3    12  SER12      -0.1202
     33  CA        -3.5870   20.3200   23.2910 C.3    12  SER12       0.2020
     34  C         -2.1060   20.2220   23.6470 C.2    12  SER12       0.2619
     35  O         -1.2690   20.0900   22.7550 O.2    12  SER12      -0.2717
     36  CB        -3.7510   21.2020   22.0530 C.3    12  SER12       0.2103
     37  OG        -3.3960   22.5620   22.3370 O.3    12  SER12      -0.2182
     38  N         -1.7840   20.3120   24.9400 N.am   13  GLY13      -0.1942
     39  CA        -0.3960   20.2650   25.3750 C.3    13  GLY13       0.2014
     40  C          0.1620   21.6700   25.4890 C.2    13  GLY13       0.2639
     41  O         -0.5970   22.6420   25.4950 O.2    13  GLY13      -0.2714
     42  N          1.4790   21.8000   25.6070 N.am   14  ASP14      -0.1957
     43  CA         2.0980   23.1230   25.7050 C.3    14  ASP14       0.1840
     44  C          1.5440   23.8970   26.8970 C.2    14  ASP14       0.2622
     45  O          1.3960   25.1240   26.8460 O.2    14  ASP14      -0.2715
     46  CB         1.8630   23.9220   24.4180 C.3    14  ASP14       0.1450
     47  CG         2.2670   23.1500   23.1690 C.2    14  ASP14       0.3671
     48  OD1        3.4870   23.0510   22.9210 O.co2  14  ASP14      -0.2456
     49  OD2        1.3720   22.6310   22.4520 O.co2  14  ASP14      -0.2456
     50  N          1.1990   23.1560   27.9490 N.am   15  ASN15      -0.1958
     51  CA         0.6680   23.7200   29.1900 C.3    15  ASN15       0.1819
     52  C         -0.7010   24.3640   29.0960 C.2    15  ASN15       0.2621
     53  O         -1.0380   25.2390   29.9090 O.2    15  ASN15      -0.2715
     54  CB         1.6520   24.7090   29.7980 C.3    15  ASN15       0.1195
     55  CG         2.9440   24.0540   30.1960 C.2    15  ASN15       0.2630
     56  OD1        4.0030   24.3520   29.6460 O.2    15  ASN15      -0.2716
     57  ND2        2.8670   23.1460   31.1450 N.am   15  ASN15      -0.0877
     58  N         -1.4890   23.9440   28.1130 N.am   16  THR16      -0.1951
     59  CA        -2.8330   24.4730   27.9700 C.3    16  THR16       0.1897
     60  C         -3.7550   23.6960   28.9100 C.2    16  THR16       0.2313
     61  O         -3.4560   22.5590   29.3180 O.2    16  THR16      -0.2863
     62  CB        -3.3410   24.3840   26.5130 C.3    16  THR16       0.1794
     63  OG1       -3.1700   23.0450   26.0270 O.3    16  THR16      -0.2208
     64  CG2       -2.5700   25.3520   25.6180 C.3    16  THR16       0.0378
     65  N         -0.3210   36.3120   28.3500 N.3    31  ASN31      -0.1225
     66  CA         0.9340   36.2050   27.6110 C.3    31  ASN31       0.1785
     67  C          1.2120   37.5350   26.9110 C.2    31  ASN31       0.2597
     68  O          0.3320   38.3960   26.8490 O.2    31  ASN31      -0.2718
     69  CB         0.8640   35.0750   26.5800 C.3    31  ASN31       0.1169
     70  CG         0.1270   35.4700   25.3170 C.2    31  ASN31       0.2627
     71  OD1       -0.9390   36.0830   25.3640 O.2    31  ASN31      -0.2716
     72  ND2        0.6880   35.1080   24.1770 N.am   31  ASN31      -0.0877
     73  N          2.3970   37.6700   26.3200 N.am   32  HIS32      -0.1975
     74  CA         2.8070   38.9060   25.6380 C.3    32  HIS32       0.1656
     75  C          1.7500   39.6530   24.8200 C.2    32  HIS32       0.2291
     76  O          1.5650   40.8560   25.0040 O.2    32  HIS32      -0.2864
     77  CB         4.0730   38.6800   24.7780 C.3    32  HIS32       0.0771
     78  CG         3.8090   38.0850   23.4230 C.ar   32  HIS32       0.0820
     79  ND1        3.5790   36.7400   23.2270 N.ar   32  HIS32      -0.2267
     80  CD2        3.7790   38.6530   22.1920 C.ar   32  HIS32       0.1154
     81  CE1        3.4200   36.5020   21.9370 C.ar   32  HIS32       0.1986
     82  NE2        3.5360   37.6450   21.2870 N.ar   32  HIS32      -0.2212
     83  N         -3.3980   37.0060   23.6440 N.3    35  GLU35      -0.1231
     84  CA        -4.1890   35.9400   23.0230 C.3    35  GLU35       0.1699
     85  C         -4.4230   34.7640   23.9670 C.2    35  GLU35       0.2592
     86  O         -5.4250   34.0710   23.8490 O.2    35  GLU35      -0.2718
     87  CB        -3.4960   35.3920   21.7730 C.3    35  GLU35       0.0402
     88  CG        -3.6420   36.2250   20.5020 C.3    35  GLU35       0.1161
     89  CD        -3.0160   35.5620   19.2770 C.2    35  GLU35       0.3649
     90  OE1       -2.3100   34.5390   19.4090 O.co2  35  GLU35      -0.2457
     91  OE2       -3.2220   36.0700   18.1610 O.co2  35  GLU35      -0.2457
     92  N         -3.4790   34.5280   24.8690 N.am   36  TRP36      -0.1976
     93  CA        -3.5530   33.4150   25.8210 C.3    36  TRP36       0.1640
     94  C         -3.6130   33.9350   27.2360 C.2    36  TRP36       0.2290
     95  O         -2.9440   34.9150   27.5680 O.2    36  TRP36      -0.2864
     96  CB        -2.3310   32.5100   25.6670 C.3    36  TRP36       0.0576
     97  CG        -2.3220   31.7260   24.4050 C.ar   36  TRP36       0.0006
     98  CD1       -1.6220   32.0100   23.2460 C.ar   36  TRP36       0.0946
     99  CD2       -3.0270   30.5040   24.1560 C.ar   36  TRP36       0.0152
    100  NE1       -1.8550   31.0280   22.3040 N.ar   36  TRP36      -0.2442
    101  CE2       -2.7090   30.0960   22.8350 C.ar   36  TRP36       0.0810
    102  CE3       -3.8940   29.7110   24.9220 C.ar   36  TRP36       0.0012
    103  CZ2       -3.2260   28.9320   22.2720 C.ar   36  TRP36       0.0191
    104  CZ3       -4.4110   28.5540   24.3600 C.ar   36  TRP36       0.0001
    105  CH2       -4.0730   28.1730   23.0450 C.ar   36  TRP36       0.0015
    106  N         -2.8950   27.4310   30.2090 N.3    47  TRP47      -0.1241
    107  CA        -3.2580   28.4910   29.2820 C.3    47  TRP47       0.1605
    108  C         -4.5670   28.1800   28.5920 C.2    47  TRP47       0.2264
    109  O         -4.8290   27.0360   28.2040 O.2    47  TRP47      -0.2867
    110  CB        -2.1530   28.6680   28.2410 C.3    47  TRP47       0.0550
    111  CG        -0.8480   29.0820   28.8380 C.ar   47  TRP47       0.0003
    112  CD1        0.2120   28.2720   29.1470 C.ar   47  TRP47       0.0946
    113  CD2       -0.4660   30.4090   29.2150 C.ar   47  TRP47       0.0152
    114  NE1        1.2260   29.0140   29.6920 N.ar   47  TRP47      -0.2442
    115  CE2        0.8390   30.3320   29.7480 C.ar   47  TRP47       0.0810
    116  CE3       -1.0940   31.6580   29.1470 C.ar   47  TRP47       0.0012
    117  CZ2        1.5280   31.4610   30.2130 C.ar   47  TRP47       0.0191
    118  CZ3       -0.3980   32.7870   29.6080 C.ar   47  TRP47       0.0001
    119  CH2        0.8940   32.6740   30.1330 C.ar   47  TRP47       0.0015
    120  N         -7.6740   30.1890   25.7850 N.3    49  PRO49      -0.2116
    121  CA        -7.8450   31.3590   24.9100 C.3    49  PRO49       0.1372
    122  C         -8.4750   32.5180   25.6780 C.2    49  PRO49       0.2244
    123  O         -9.4750   32.3200   26.3320 O.2    49  PRO49      -0.2868
    124  CB        -8.7990   30.8300   23.8340 C.3    49  PRO49       0.0268
    125  CG        -8.5470   29.3490   23.8430 C.3    49  PRO49       0.0207
    126  CD        -8.4440   29.0340   25.2890 C.3    49  PRO49       0.0892
    127  N        -10.0890   34.9470   24.5370 N.3    51  ASN51      -0.1225
    128  CA       -11.3860   35.2240   23.9300 C.3    51  ASN51       0.1785
    129  C        -12.4820   34.1890   24.1880 C.2    51  ASN51       0.2597
    130  O        -13.5700   34.2850   23.6390 O.2    51  ASN51      -0.2718
    131  CB       -11.2100   35.4340   22.4200 C.3    51  ASN51       0.1169
    132  CG       -12.2650   36.3420   21.8320 C.2    51  ASN51       0.2627
    133  OD1      -12.9260   37.1120   22.5470 O.2    51  ASN51      -0.2716
    134  ND2      -12.4290   36.2680   20.5250 N.am   51  ASN51      -0.0877
    135  N        -12.1580   33.1600   24.9680 N.am   52  TYR52      -0.1976
    136  CA       -13.1060   32.1070   25.3360 C.3    52  TYR52       0.1639
    137  C        -13.6280   32.3300   26.7520 C.2    52  TYR52       0.2290
    138  O        -14.4280   31.5380   27.2310 O.2    52  TYR52      -0.2864
    139  CB       -12.4280   30.7320   25.3190 C.3    52  TYR52       0.0560
    140  CG       -12.4340   30.0280   23.9880 C.ar   52  TYR52      -0.0198
    141  CD1      -12.1580   30.7130   22.7960 C.ar   52  TYR52      -0.0009
    142  CD2      -12.7290   28.6740   23.9200 C.ar   52  TYR52      -0.0009
    143  CE1      -12.1880   30.0570   21.5700 C.ar   52  TYR52       0.0417
    144  CE2      -12.7550   28.0080   22.7000 C.ar   52  TYR52       0.0417
    145  CZ       -12.4910   28.7050   21.5350 C.ar   52  TYR52       0.1957
    146  OH       -12.5670   28.0280   20.3420 O.3    52  TYR52      -0.2866
@<TRIPOS>BOND
     1    91    89   ar
     2    89    90   ar
     3    89    88    1
     4   146   145    1
     5    88    87    1
     6   134   132   am
     7    82    81   ar
     8    82    80   ar
     9   145   143   ar
    10   145   144   ar
    11   143   141   ar
    12    87    84    1
    13   132   131    1
    14   132   133    2
    15    81    79   ar
    16    36    37    1
    17    36    33    1
    18    80    78   ar
    19    12    11    1
    20   103   101   ar
    21   103   105   ar
    22   100   101   ar
    23   100    98   ar
    24   131   128    1
    25    49    47   ar
    26     9    11   ar
    27     9     7   ar
    28    11    10   ar
    29   144   142   ar
    30    35    34    2
    31   141   140   ar
    32   101    99   ar
    33    48    47   ar
    34     7     6   ar
    35    10     8   ar
    36    84    83    1
    37    84    85    1
    38   105   104   ar
    39    47    46    1
    40    79    78   ar
    41    98    97   ar
    42    33    34    1
    43    33    32    1
    44    29    27   ar
    45    29    31   ar
    46     6     8   ar
    47     6     5    1
    48    78    77    1
    49    27    26   ar
    50    16    15    2
    51   130   129    2
    52    34    38   am
    53     5     2    1
    54   124   125    1
    55   124   121    1
    56   125   126    1
    57    86    85    2
    58   142   140   ar
    59   128   129    1
    60   128   127    1
    61    85    92   am
    62   140   139    1
    63    99    97   ar
    64    99   102   ar
    65    72    70   am
    66   129   135   am
    67    31    30   ar
    68   104   102   ar
    69    97    96    1
    70    46    43    1
    71    77    74    1
    72    15    21   am
    73    15    14    1
    74    22    25    1
    75    22    23    1
    76    22    21    1
    77    75    76    2
    78    75    74    1
    79    92    93    1
    80    26    25    1
    81    26    28   ar
    82   121   122    1
    83   121   120    1
    84    38    39    1
    85   135   136    1
    86    17    14    1
    87    17    18    1
    88    20    18   ar
    89    13    14    1
    90    13     3   am
    91     2     3    1
    92     2     1    1
    93   126   120    1
    94    70    71    2
    95    70    69    1
    96   139   136    1
    97   136   137    1
    98    23    24    2
    99    39    40    1
   100    40    41    2
   101    40    42   am
   102    42    43    1
   103    64    62    1
   104    74    73    1
   105    96    93    1
   106    30    28   ar
   107   122   123    2
   108     3     4    2
   109    43    44    1
   110    18    19   ar
   111    93    94    1
   112    63    62    1
   113    73    67   am
   114    62    59    1
   115    69    66    1
   116   137   138    2
   117    45    44    2
   118    68    67    2
   119    44    50   am
   120    67    66    1
   121    94    95    2
   122    66    65    1
   123    50    51    1
   124    59    58    1
   125    59    60    1
   126    58    52   am
   127   109   108    2
   128   110   111    1
   129   110   107    1
   130   108   107    1
   131   111   112   ar
   132   111   113   ar
   133    60    61    2
   134    52    51    1
   135    52    53    2
   136   116   113   ar
   137   116   118   ar
   138   112   114   ar
   139    51    54    1
   140   113   115   ar
   141   107   106    1
   142   118   119   ar
   143    56    55    2
   144   114   115   ar
   145   115   117   ar
   146    54    55    1
   147   119   117   ar
   148    55    57   am
