@<TRIPOS>MOLECULE
tmp/1bc5A00.pdb
 132 129 0 0 0
SMALL
GASTEIGER

@<TRIPOS>ATOM
      1  N         63.3820   39.5800   13.8520 N.3   152  ILE152     -0.1245
      2  CA        63.4370   39.2690   12.4130 C.3   152  ILE152      0.1561
      3  C         61.9990   39.0170   11.9830 C.2   152  ILE152      0.2260
      4  O         61.2590   38.2670   12.6410 O.2   152  ILE152     -0.2867
      5  CB        64.2790   38.0070   12.1170 C.3   152  ILE152      0.0252
      6  CG1       65.7600   38.3170   12.2800 C.3   152  ILE152      0.0019
      7  CG2       64.0350   37.5250   10.6980 C.3   152  ILE152      0.0019
      8  CD1       66.5800   37.1130   12.6280 C.3   152  ILE152      0.0001
      9  N         59.3980   40.9420    5.4060 N.3   155  LEU155     -0.1245
     10  CA        59.1900   42.2630    4.8210 C.3   155  LEU155      0.1561
     11  C         57.7430   42.4230    4.3360 C.2   155  LEU155      0.2260
     12  O         57.1690   43.5080    4.4230 O.2   155  LEU155     -0.2867
     13  CB        60.1820   42.4640    3.6630 C.3   155  LEU155      0.0270
     14  CG        60.1670   43.6940    2.7610 C.3   155  LEU155      0.0019
     15  CD1       60.0920   44.9620    3.5690 C.3   155  LEU155      0.0001
     16  CD2       61.4190   43.6840    1.9220 C.3   155  LEU155      0.0001
     17  N         60.9790   52.2540    7.9260 N.3   166  LEU166     -0.1231
     18  CA        61.7960   51.1420    7.4710 C.3   166  LEU166      0.1693
     19  C         63.2540   51.5630    7.3950 C.2   166  LEU166      0.2591
     20  O         64.1340   50.9100    7.9420 O.2   166  LEU166     -0.2718
     21  CB        61.3350   50.7450    6.0810 C.3   166  LEU166      0.0284
     22  CG        60.6430   49.4030    5.9600 C.3   166  LEU166      0.0019
     23  CD1       59.6100   49.2770    7.0260 C.3   166  LEU166      0.0001
     24  CD2       60.0320   49.3070    4.5810 C.3   166  LEU166      0.0001
     25  N         63.4820   52.6660    6.6950 N.am  167  GLN167     -0.1979
     26  CA        64.8050   53.2510    6.4770 C.3   167  GLN167      0.1601
     27  C         65.4580   53.6170    7.8050 C.2   167  GLN167      0.2287
     28  O         66.6680   53.5150    7.9890 O.2   167  GLN167     -0.2864
     29  CB        64.6330   54.5340    5.6390 C.3   167  GLN167      0.0394
     30  CG        65.4660   54.6560    4.3680 C.3   167  GLN167      0.0908
     31  CD        66.7310   55.5140    4.5390 C.2   167  GLN167      0.2608
     32  OE1       66.8520   56.3080    5.4940 O.2   167  GLN167     -0.2717
     33  NE2       67.6860   55.3520    3.6130 N.am  167  GLN167     -0.0878
     34  N         64.9970   49.5350   10.5640 N.3   170  PHE170     -0.1227
     35  CA        65.2060   48.1590   10.1660 C.3   170  PHE170      0.1736
     36  C         66.3940   47.9900    9.2440 C.2   170  PHE170      0.2595
     37  O         66.9150   48.9660    8.7140 O.2   170  PHE170     -0.2718
     38  CB        63.9650   47.6610    9.4320 C.3   170  PHE170      0.0547
     39  CG        62.7600   47.4960   10.3070 C.ar  170  PHE170     -0.0202
     40  CD1       61.8900   48.5590   10.5270 C.ar  170  PHE170     -0.0042
     41  CD2       62.4670   46.2570   10.8760 C.ar  170  PHE170     -0.0042
     42  CE1       60.7500   48.3940   11.2940 C.ar  170  PHE170     -0.0003
     43  CE2       61.3370   46.0820   11.6380 C.ar  170  PHE170     -0.0003
     44  CZ        60.4730   47.1520   11.8510 C.ar  170  PHE170     -0.0000
     45  N         66.8460   46.7480    9.0870 N.am  171  MET171     -0.1965
     46  CA        67.9360   46.4140    8.1780 C.3   171  MET171      0.1736
     47  C         67.2520   45.5030    7.1940 C.2   171  MET171      0.2616
     48  O         66.2660   44.8670    7.5390 O.2   171  MET171     -0.2715
     49  CB        69.0570   45.6490    8.8820 C.3   171  MET171      0.0427
     50  CG        69.8440   46.4530    9.9010 C.3   171  MET171      0.0599
     51  SD        70.8330   47.7380    9.1350 S.3   171  MET171     -0.1393
     52  CE        72.2950   46.7480    8.7290 C.3   171  MET171      0.0692
     53  N         67.6660   45.5320    5.9400 N.am  172  ARG172     -0.1963
     54  CA        67.0600   44.6600    4.9630 C.3   172  ARG172      0.1729
     55  C         67.9670   43.4980    4.6180 C.2   172  ARG172      0.2617
     56  O         69.1720   43.6650    4.4530 O.2   172  ARG172     -0.2715
     57  CB        66.6280   45.4160    3.7150 C.3   172  ARG172      0.0348
     58  CG        67.7200   46.0190    2.9130 C.3   172  ARG172      0.0492
     59  CD        67.2130   46.2860    1.4950 C.3   172  ARG172      0.2205
     60  NE        66.7060   45.0520    0.9040 N.pl3 172  ARG172     -0.0865
     61  CZ        67.0710   44.5960   -0.2950 C.cat 172  ARG172      0.5346
     62  NH1       67.9430   45.2840   -1.0340 N.pl3 172  ARG172      0.1354
     63  NH2       66.6010   43.4310   -0.7470 N.pl3 172  ARG172      0.1354
     64  N         67.3770   42.3040    4.6140 N.am  173  GLY173     -0.1940
     65  CA        68.1140   41.0930    4.3150 C.3   173  GLY173      0.2014
     66  C         68.2890   40.9360    2.8340 C.2   173  GLY173      0.2640
     67  O         67.3990   41.2800    2.0620 O.2   173  GLY173     -0.2714
     68  N         69.4350   40.4040    2.4400 N.am  174  THR174     -0.1936
     69  CA        69.7340   40.2010    1.0370 C.3   174  THR174      0.2028
     70  C         70.2730   38.7950    0.8810 C.2   174  THR174      0.2643
     71  O         70.5970   38.1570    1.8750 O.2   174  THR174     -0.2714
     72  CB        70.7790   41.2220    0.5470 C.3   174  THR174      0.1808
     73  OG1       72.0260   40.9800    1.1970 O.3   174  THR174     -0.2208
     74  CG2       70.3360   42.6190    0.8940 C.3   174  THR174      0.0379
     75  N         70.3410   38.3060   -0.3540 N.am  175  GLY175     -0.1940
     76  CA        70.8440   36.9630   -0.6000 C.3   175  GLY175      0.1999
     77  C         70.0200   35.8730    0.0640 C.2   175  GLY175      0.2481
     78  O         68.8460   35.7090   -0.2530 O.2   175  GLY175     -0.2729
     79  N         70.6030   35.1030    0.9920 N.am  176  PRO176     -0.2715
     80  CA        69.8630   34.0400    1.6750 C.3   176  PRO176      0.1536
     81  C         68.7680   34.5870    2.5870 C.2   176  PRO176      0.2598
     82  O         67.8230   33.8830    2.9510 O.2   176  PRO176     -0.2715
     83  CB        70.9610   33.3330    2.4610 C.3   176  PRO176      0.0310
     84  CG        71.9360   34.4040    2.6960 C.3   176  PRO176      0.0237
     85  CD        72.0170   35.0650    1.3800 C.3   176  PRO176      0.0939
     86  N         68.9010   35.8590    2.9450 N.am  177  HIS177     -0.1974
     87  CA        67.9530   36.5130    3.8150 C.3   177  HIS177      0.1656
     88  C         66.9160   37.3780    3.1210 C.2   177  HIS177      0.2291
     89  O         66.0320   37.9130    3.7630 O.2   177  HIS177     -0.2864
     90  CB        68.7220   37.3200    4.8440 C.3   177  HIS177      0.0771
     91  CG        69.5110   36.4650    5.7710 C.ar  177  HIS177      0.0820
     92  ND1       68.9230   35.4580    6.4980 N.ar  177  HIS177     -0.2267
     93  CD2       70.8380   36.3730    6.0040 C.ar  177  HIS177      0.1154
     94  CE1       69.8520   34.7720    7.1300 C.ar  177  HIS177      0.1986
     95  NE2       71.0260   35.3010    6.8430 N.ar  177  HIS177     -0.2212
     96  N         63.4000   39.2000    4.2830 N.3   180  LEU180     -0.1231
     97  CA        63.3470   39.3440    5.7370 C.3   180  LEU180      0.1693
     98  C         63.8550   40.7060    6.0990 C.2   180  LEU180      0.2592
     99  O         64.6280   41.2820    5.3450 O.2   180  LEU180     -0.2718
    100  CB        64.2920   38.3430    6.4250 C.3   180  LEU180      0.0284
    101  CG        63.9760   36.8670    6.3930 C.3   180  LEU180      0.0019
    102  CD1       65.1000   36.1420    7.0460 C.3   180  LEU180      0.0001
    103  CD2       62.6470   36.6230    7.0850 C.3   180  LEU180      0.0001
    104  N         63.4820   41.1560    7.2960 N.am  181  VAL181     -0.1966
    105  CA        63.9220   42.4230    7.8490 C.3   181  VAL181      0.1727
    106  C         64.2940   42.1530    9.2980 C.2   181  VAL181      0.2616
    107  O         63.8270   41.1950    9.8950 O.2   181  VAL181     -0.2715
    108  CB        62.8430   43.5180    7.7890 C.3   181  VAL181      0.0290
    109  CG1       62.7060   44.0450    6.3600 C.3   181  VAL181      0.0023
    110  CG2       61.5160   42.9850    8.3210 C.3   181  VAL181      0.0023
    111  N         65.1410   43.0070    9.8510 N.am  182  ARG182     -0.1977
    112  CA        65.5960   42.8740   11.2160 C.3   182  ARG182      0.1597
    113  C         65.5780   44.2450   11.8970 C.2   182  ARG182      0.2287
    114  O         66.1800   45.1800   11.3930 O.2   182  ARG182     -0.2864
    115  CB        67.0270   42.3530   11.2000 C.3   182  ARG182      0.0334
    116  CG        67.5480   41.9790   12.5450 C.3   182  ARG182      0.0492
    117  CD        68.9790   41.5030   12.4500 C.3   182  ARG182      0.2205
    118  NE        69.9100   42.5500   12.0340 N.pl3 182  ARG182     -0.0865
    119  CZ        71.1180   42.3010   11.5380 C.cat 182  ARG182      0.5346
    120  NH1       71.5150   41.0440   11.3920 N.pl3 182  ARG182      0.1354
    121  NH2       71.9450   43.2930   11.2320 N.pl3 182  ARG182      0.1354
    122  N         66.7280   47.1970   13.9280 N.3   184  ARG184     -0.1245
    123  CA        68.1000   47.5980   14.2700 C.3   184  ARG184      0.1563
    124  C         68.3670   47.4520   15.7690 C.2   184  ARG184      0.2260
    125  O         67.4850   47.7380   16.5910 O.2   184  ARG184     -0.2867
    126  CB        68.3240   49.0570   13.9100 C.3   184  ARG184      0.0307
    127  CG        68.6700   49.3260   12.4740 C.3   184  ARG184      0.0489
    128  CD        68.6320   50.8010   12.2320 C.3   184  ARG184      0.2205
    129  NE        68.8900   51.1150   10.8450 N.pl3 184  ARG184     -0.0865
    130  CZ        69.5840   52.1740   10.4600 C.cat 184  ARG184      0.5346
    131  NH1       70.0760   52.9940   11.3750 N.pl3 184  ARG184      0.1354
    132  NH2       69.8070   52.3970    9.1740 N.pl3 184  ARG184      0.1354
@<TRIPOS>BOND
     1    62    61    1
     2    63    61    1
     3    76    75    1
     4    76    77    1
     5    75    70   am
     6    61    60    2
     7    78    77    2
     8    77    79   am
     9    72    74    1
    10    72    69    1
    11    72    73    1
    12    70    69    1
    13    70    71    2
    14    60    59    1
    15    79    85    1
    16    79    80    1
    17    69    68    1
    18    85    84    1
    19    59    58    1
    20    80    83    1
    21    80    81    1
    22    16    14    1
    23    67    66    2
    24    68    66   am
    25    83    84    1
    26    81    86   am
    27    81    82    2
    28    14    15    1
    29    14    13    1
    30    66    65    1
    31    58    57    1
    32    86    87    1
    33    88    89    2
    34    88    87    1
    35    33    31   am
    36    13    10    1
    37    57    54    1
    38    87    90    1
    39    96    97    1
    40    65    64    1
    41    11    12    2
    42    11    10    1
    43    30    31    1
    44    30    29    1
    45    56    55    2
    46    31    32    2
    47    24    22    1
    48    64    55   am
    49    55    54    1
    50    10     9    1
    51    90    91    1
    52    54    53    1
    53    99    98    2
    54    29    26    1
    55    97    98    1
    56    97   100    1
    57    91    93   ar
    58    91    92   ar
    59    53    47   am
    60    22    21    1
    61    22    23    1
    62    93    95   ar
    63    21    18    1
    64    98   104   am
    65   109   108    1
    66   101   100    1
    67   101   102    1
    68   101   103    1
    69    26    25    1
    70    26    27    1
    71    92    94   ar
    72    25    19   am
    73    95    94   ar
    74    47    48    2
    75    47    46    1
    76   104   105    1
    77    19    18    1
    78    19    20    2
    79    18    17    1
    80   108   105    1
    81   108   110    1
    82    27    28    2
    83   105   106    1
    84    46    49    1
    85    46    45    1
    86    37    36    2
    87    52    51    1
    88    49    50    1
    89    45    36   am
    90    51    50    1
    91   132   130    1
    92    36    35    1
    93   106   111   am
    94   106   107    2
    95    38    35    1
    96    38    39    1
    97   111   112    1
    98    35    34    1
    99    39    40   ar
   100    39    41   ar
   101   130   129    2
   102   130   131    1
   103    40    42   ar
   104     7     5    1
   105   129   128    1
   106    41    43   ar
   107   115   112    1
   108   115   116    1
   109   112   113    1
   110   121   119    1
   111    42    44   ar
   112   120   119    1
   113   114   113    2
   114   119   118    2
   115    43    44   ar
   116     3     2    1
   117     3     4    2
   118   118   117    1
   119     5     6    1
   120     5     2    1
   121   128   127    1
   122     6     8    1
   123     2     1    1
   124   117   116    1
   125   127   126    1
   126   126   123    1
   127   122   123    1
   128   123   124    1
   129   124   125    2
