@<TRIPOS>MOLECULE
tmp/1bccE01.pdb
 90 87 0 0 0
SMALL
GASTEIGER

@<TRIPOS>ATOM
      1  N         41.1260  113.5020   49.1090 N.3    37  TYR37      -0.1241
      2  CA        41.8900  114.4680   49.8770 C.3    37  TYR37       0.1605
      3  C         41.6380  115.8960   49.4040 C.2    37  TYR37       0.2264
      4  O         41.6450  116.8390   50.1900 O.2    37  TYR37      -0.2867
      5  CB        43.3740  114.1220   49.8300 C.3    37  TYR37       0.0534
      6  CG        43.7460  112.9050   50.6620 C.ar   37  TYR37      -0.0201
      7  CD1       42.8290  112.3120   51.5300 C.ar   37  TYR37      -0.0009
      8  CD2       45.0270  112.3540   50.5920 C.ar   37  TYR37      -0.0009
      9  CE1       43.1830  111.2020   52.3010 C.ar   37  TYR37       0.0417
     10  CE2       45.3870  111.2450   51.3590 C.ar   37  TYR37       0.0417
     11  CZ        44.4630  110.6750   52.2080 C.ar   37  TYR37       0.1957
     12  OH        44.8290  109.5750   52.9470 O.3    37  TYR37      -0.2866
     13  N         38.6370  117.0500   51.0950 N.3    40  THR40      -0.1218
     14  CA        38.9550  117.3580   52.4820 C.3    40  THR40       0.1862
     15  C         39.8380  118.6070   52.5550 C.2    40  THR40       0.2287
     16  O         39.6120  119.4990   53.3820 O.2    40  THR40      -0.2866
     17  CB        39.6860  116.2090   53.1400 C.3    40  THR40       0.1770
     18  OG1       38.9360  115.0080   52.9540 O.3    40  THR40      -0.2211
     19  CG2       39.8440  116.4740   54.6250 C.3    40  THR40       0.0375
     20  N         37.7100  121.5430   52.4340 N.3    43  THR43      -0.1203
     21  CA        36.9140  121.8020   53.6270 C.3    43  THR43       0.1994
     22  C         37.7260  122.4710   54.6930 C.2    43  THR43       0.2618
     23  O         37.2820  123.4270   55.2990 O.2    43  THR43      -0.2717
     24  CB        36.3350  120.5240   54.1660 C.3    43  THR43       0.1784
     25  OG1       35.6750  119.8340   53.1290 O.3    43  THR43      -0.2211
     26  CG2       35.4150  120.7540   55.3210 C.3    43  THR43       0.0376
     27  N         38.9190  121.9580   54.9400 N.am   44  THR44      -0.1952
     28  CA        39.7710  122.5660   55.9560 C.3    44  THR44       0.1897
     29  C         39.9230  124.0270   55.5270 C.2    44  THR44       0.2313
     30  O         39.7910  124.9620   56.3080 O.2    44  THR44      -0.2863
     31  CB        41.1600  121.8740   56.0130 C.3    44  THR44       0.1794
     32  OG1       40.9830  120.4620   56.1140 O.3    44  THR44      -0.2208
     33  CG2       41.9160  122.3110   57.2460 C.3    44  THR44       0.0378
     34  N         36.7180  126.0490   55.8770 N.3    47  VAL47      -0.1231
     35  CA        36.5420  126.2100   57.3100 C.3    47  VAL47       0.1692
     36  C         37.4290  127.2840   57.8870 C.2    47  VAL47       0.2592
     37  O         36.9780  128.0940   58.6680 O.2    47  VAL47      -0.2718
     38  CB        36.8490  124.9220   58.0580 C.3    47  VAL47       0.0266
     39  CG1       36.7550  125.1630   59.5360 C.3    47  VAL47       0.0020
     40  CG2       35.8810  123.8560   57.6530 C.3    47  VAL47       0.0020
     41  N         38.6990  127.2850   57.5160 N.am   48  ALA48      -0.1966
     42  CA        39.6170  128.2830   58.0510 C.3    48  ALA48       0.1728
     43  C         38.9900  129.6310   57.8340 C.2    48  ALA48       0.2616
     44  O         38.8060  130.4010   58.7680 O.2    48  ALA48      -0.2715
     45  CB        40.9590  128.2190   57.3450 C.3    48  ALA48       0.0334
     46  N         38.6670  129.9100   56.5840 N.am   49  TYR49      -0.1960
     47  CA        38.0410  131.1670   56.2420 C.3    49  TYR49       0.1771
     48  C         37.0620  131.5270   57.3630 C.2    49  TYR49       0.2619
     49  O         37.3190  132.4460   58.1390 O.2    49  TYR49      -0.2715
     50  CB        37.2990  131.0220   54.9200 C.3    49  TYR49       0.0574
     51  CG        36.4730  132.2100   54.5740 C.ar   49  TYR49      -0.0198
     52  CD1       37.0700  133.4000   54.1970 C.ar   49  TYR49      -0.0009
     53  CD2       35.0890  132.1510   54.6470 C.ar   49  TYR49      -0.0009
     54  CE1       36.3060  134.5120   53.8910 C.ar   49  TYR49       0.0417
     55  CE2       34.3150  133.2500   54.3460 C.ar   49  TYR49       0.0417
     56  CZ        34.9270  134.4270   53.9650 C.ar   49  TYR49       0.1957
     57  OH        34.1560  135.5100   53.6280 O.3    49  TYR49      -0.2866
     58  N         35.9550  130.7900   57.4550 N.am   50  ALA50      -0.1963
     59  CA        34.9430  131.0200   58.4850 C.3    50  ALA50       0.1728
     60  C         35.5290  131.3440   59.8610 C.2    50  ALA50       0.2616
     61  O         35.2050  132.3660   60.4530 O.2    50  ALA50      -0.2715
     62  CB        34.0370  129.8040   58.5930 C.3    50  ALA50       0.0334
     63  N         36.3850  130.4690   60.3710 N.am   51  ALA51      -0.1963
     64  CA        37.0040  130.6720   61.6760 C.3    51  ALA51       0.1728
     65  C         37.7960  131.9720   61.7450 C.2    51  ALA51       0.2616
     66  O         37.6740  132.7330   62.6980 O.2    51  ALA51      -0.2715
     67  CB        37.9060  129.5160   61.9940 C.3    51  ALA51       0.0334
     68  N         38.6280  132.2130   60.7390 N.am   52  LYS52      -0.1977
     69  CA        39.4160  133.4340   60.6960 C.3    52  LYS52       0.1596
     70  C         38.5040  134.6190   60.9620 C.2    52  LYS52       0.2287
     71  O         38.8460  135.5020   61.7440 O.2    52  LYS52      -0.2864
     72  CB        40.0910  133.5710   59.3360 C.3    52  LYS52       0.0298
     73  CG        40.9390  134.8140   59.1460 C.3    52  LYS52       0.0038
     74  CD        40.0890  136.0500   58.9670 C.3    52  LYS52       0.0206
     75  CE        40.8990  137.2410   58.4780 C.3    52  LYS52       0.1093
     76  NZ        40.0250  138.4340   58.2950 N.3    52  LYS52      -0.1314
     77  N         34.9630  134.7350   62.2340 N.3    54  VAL54      -0.1231
     78  CA        34.3710  134.6860   63.5560 C.3    54  VAL54       0.1692
     79  C         35.3520  135.0240   64.6570 C.2    54  VAL54       0.2591
     80  O         35.0290  135.8090   65.5360 O.2    54  VAL54      -0.2718
     81  CB        33.7540  133.3270   63.8570 C.3    54  VAL54       0.0266
     82  CG1       33.5140  133.1840   65.3540 C.3    54  VAL54       0.0020
     83  CG2       32.4400  133.2140   63.1350 C.3    54  VAL54       0.0020
     84  N         36.5450  134.4450   64.6230 N.am   55  VAL55      -0.1980
     85  CA        37.5180  134.7480   65.6620 C.3    55  VAL55       0.1595
     86  C         37.8880  136.2200   65.6550 C.2    55  VAL55       0.2287
     87  O         37.8250  136.8790   66.6830 O.2    55  VAL55      -0.2864
     88  CB        38.7900  133.9090   65.5280 C.3    55  VAL55       0.0276
     89  CG1       39.8530  134.4300   66.4660 C.3    55  VAL55       0.0022
     90  CG2       38.4750  132.4600   65.8690 C.3    55  VAL55       0.0022
@<TRIPOS>BOND
     1     1     2    1
     2     3     2    1
     3     3     4    2
     4     5     2    1
     5     5     6    1
     6     8     6   ar
     7     8    10   ar
     8     6     7   ar
     9    13    14    1
    10    10    11   ar
    11     7     9   ar
    12    11     9   ar
    13    11    12    1
    14    20    21    1
    15    14    15    1
    16    14    17    1
    17    15    16    2
    18    18    17    1
    19    25    24    1
    20    17    19    1
    21    21    24    1
    22    21    22    1
    23    57    56    1
    24    54    56   ar
    25    54    52   ar
    26    56    55   ar
    27    24    26    1
    28    52    51   ar
    29    55    53   ar
    30    51    53   ar
    31    51    50    1
    32    22    27   am
    33    22    23    2
    34    50    47    1
    35    27    28    1
    36    29    28    1
    37    29    30    2
    38    34    35    1
    39    28    31    1
    40    31    32    1
    41    31    33    1
    42    47    46    1
    43    47    48    1
    44    46    43   am
    45    35    36    1
    46    35    38    1
    47    45    42    1
    48    48    58   am
    49    48    49    2
    50    58    59    1
    51    41    36   am
    52    41    42    1
    53    40    38    1
    54    43    42    1
    55    43    44    2
    56    36    37    2
    57    38    39    1
    58    76    75    1
    59    75    74    1
    60    59    62    1
    61    59    60    1
    62    74    73    1
    63    73    72    1
    64    72    69    1
    65    60    63   am
    66    60    61    2
    67    63    64    1
    68    69    68    1
    69    69    70    1
    70    68    65   am
    71    70    71    2
    72    64    65    1
    73    64    67    1
    74    65    66    2
    75    77    78    1
    76    83    81    1
    77    78    81    1
    78    78    79    1
    79    81    82    1
    80    84    79   am
    81    84    85    1
    82    79    80    2
    83    88    85    1
    84    88    90    1
    85    88    89    1
    86    86    85    1
    87    86    87    2
