@<TRIPOS>MOLECULE
tmp/1bcdA00.pdb
 96 92 0 0 0
SMALL
GASTEIGER

@<TRIPOS>ATOM
      1  N        -12.6680    6.3690   11.3010 N.3    90  GLN90      -0.1245
      2  CA       -12.4120    5.1710   10.4230 C.3    90  GLN90       0.1566
      3  C        -12.6010    3.8800   11.2050 C.2    90  GLN90       0.2260
      4  O        -12.6150    3.9050   12.4530 O.2    90  GLN90      -0.2867
      5  CB       -10.9590    5.2000    9.8770 C.3    90  GLN90       0.0367
      6  CG        -9.8400    5.3780   10.8980 C.3    90  GLN90       0.0905
      7  CD        -9.0760    4.1920   11.3530 C.2    90  GLN90       0.2608
      8  OE1       -9.5090    3.0300   11.2310 O.2    90  GLN90      -0.2717
      9  NE2       -7.8570    4.2940   11.8980 N.am   90  GLN90      -0.0878
     10  N        -11.2440   -0.5220   11.0130 N.3    92  HIS92      -0.1241
     11  CA       -10.3350   -1.4220   10.3300 C.3    92  HIS92       0.1621
     12  C        -10.3660   -2.7570   11.1470 C.2    92  HIS92       0.2264
     13  O        -10.9970   -2.7940   12.1980 O.2    92  HIS92      -0.2867
     14  CB        -8.8900   -0.9470   10.1500 C.3    92  HIS92       0.0745
     15  CG        -8.3750   -0.6090   11.5430 C.ar   92  HIS92       0.0817
     16  ND1       -8.5120    0.6140   12.1370 N.ar   92  HIS92      -0.2268
     17  CD2       -7.7370   -1.4510   12.3980 C.ar   92  HIS92       0.1154
     18  CE1       -8.0010    0.5390   13.3490 C.ar   92  HIS92       0.1986
     19  NE2       -7.5420   -0.7050   13.4770 N.ar   92  HIS92      -0.2212
     20  N         -8.0500   -6.4530   12.4760 N.3    94  HIS94      -0.1297
     21  CA        -6.8420   -7.1920   12.7770 C.3    94  HIS94       0.1306
     22  C         -7.2530   -8.6910   12.6140 C.3    94  HIS94       0.2013
     23  O         -8.3370   -8.9840   13.1130 O.3    94  HIS94      -0.2188
     24  CB        -6.2940   -7.0310   14.2300 C.3    94  HIS94       0.0691
     25  CG        -5.9110   -5.5530   14.3870 C.ar   94  HIS94       0.0814
     26  ND1       -4.6560   -5.1050   14.1470 N.ar   94  HIS94      -0.2268
     27  CD2       -6.6430   -4.4690   14.6550 C.ar   94  HIS94       0.1154
     28  CE1       -4.5740   -3.8050   14.2980 C.ar   94  HIS94       0.1986
     29  NE2       -5.7930   -3.4310   14.6280 N.ar   94  HIS94      -0.2212
     30  N        -12.0050   -2.6090   14.8980 N.3   117  HIS117     -0.1297
     31  CA       -11.7960   -1.3710   15.6900 C.3   117  HIS117      0.1306
     32  C        -12.4870   -0.1500   15.0610 C.3   117  HIS117      0.2013
     33  O        -12.2030    0.0840   13.8130 O.3   117  HIS117     -0.2188
     34  CB       -10.3380   -1.0420   15.9450 C.3   117  HIS117      0.0691
     35  CG        -9.5570   -2.0520   16.7190 C.ar  117  HIS117      0.0814
     36  ND1       -8.1990   -2.1810   16.6950 N.ar  117  HIS117     -0.2268
     37  CD2       -9.9380   -2.9490   17.6630 C.ar  117  HIS117      0.1154
     38  CE1       -7.7420   -3.1450   17.4980 C.ar  117  HIS117      0.1986
     39  NE2       -8.8430   -3.5820   18.1020 N.ar  117  HIS117     -0.2212
     40  N        -12.7080    3.6120   15.2360 N.3   119  VAL119     -0.1245
     41  CA       -11.9130    4.6740   15.8240 C.3   119  VAL119      0.1561
     42  C        -12.6630    6.0350   15.9210 C.2   119  VAL119      0.2260
     43  O        -13.1340    6.4610   14.8650 O.2   119  VAL119     -0.2867
     44  CB       -10.5370    4.7460   15.1970 C.3   119  VAL119      0.0252
     45  CG1       -9.5720    5.7520   15.8070 C.3   119  VAL119      0.0019
     46  CG2       -9.8900    3.3160   15.1740 C.3   119  VAL119      0.0019
     47  N        -11.9510    3.8650   21.2910 N.3   140  VAL140     -0.1245
     48  CA       -12.0110    2.8140   20.2430 C.3   140  VAL140      0.1561
     49  C        -13.0160    1.7580   20.6910 C.2   140  VAL140      0.2260
     50  O        -12.8280    1.2390   21.8120 O.2   140  VAL140     -0.2867
     51  CB       -10.6330    2.2240   19.8980 C.3   140  VAL140      0.0252
     52  CG1      -10.7570    1.1970   18.7510 C.3   140  VAL140      0.0019
     53  CG2       -9.5340    3.2220   19.5900 C.3   140  VAL140      0.0019
     54  N         -2.9250    3.1980   21.3700 N.3   195  LEU195     -0.1231
     55  CA        -3.0910    2.6700   19.9740 C.3   195  LEU195      0.1693
     56  C         -2.2880    1.3200   20.0130 C.2   195  LEU195      0.2593
     57  O         -1.2810    1.2360   20.7750 O.2   195  LEU195     -0.2718
     58  CB        -2.3840    3.6600   19.0380 C.3   195  LEU195      0.0284
     59  CG        -2.9540    5.1110   19.0410 C.3   195  LEU195      0.0019
     60  CD1       -2.0170    5.8790   18.1030 C.3   195  LEU195      0.0001
     61  CD2       -4.3840    5.0490   18.6000 C.3   195  LEU195      0.0001
     62  N         -2.6700    0.4170   19.1350 N.am  196  THR196     -0.1939
     63  CA        -2.0520   -0.9010   19.0500 C.3   196  THR196      0.2028
     64  C         -1.0510   -0.9890   17.9380 C.2   196  THR196      0.2642
     65  O         -0.3410   -2.0340   17.8240 O.2   196  THR196     -0.2714
     66  CB        -3.0630   -2.0910   19.1290 C.3   196  THR196      0.1808
     67  OG1       -3.6860   -2.0640   17.8460 O.3   196  THR196     -0.2208
     68  CG2       -4.0340   -2.0980   20.3350 C.3   196  THR196      0.0379
     69  N         -0.9470    0.0890   17.1620 N.am  197  THR197     -0.1950
     70  CA         0.1670    0.1940   16.2240 C.3   197  THR197      0.1897
     71  C          0.9650    1.4570   16.5770 C.2   197  THR197      0.2313
     72  O          0.3850    2.3780   17.2590 O.2   197  THR197     -0.2863
     73  CB        -0.4460    0.3310   14.7610 C.3   197  THR197      0.1794
     74  OG1       -1.2100    1.6270   14.8530 O.3   197  THR197     -0.2208
     75  CG2       -1.4690   -0.7170   14.4220 C.3   197  THR197      0.0378
     76  N         -6.0690    6.2810   24.4160 N.3   204  VAL204     -0.1245
     77  CA        -7.3610    5.6030   24.1560 C.3   204  VAL204      0.1561
     78  C         -8.1140    5.1200   25.3820 C.2   204  VAL204      0.2260
     79  O         -7.5550    4.5490   26.3300 O.2   204  VAL204     -0.2867
     80  CB        -7.0930    4.3600   23.2150 C.3   204  VAL204      0.0252
     81  CG1       -8.4170    3.6730   22.7840 C.3   204  VAL204      0.0019
     82  CG2       -6.2830    4.6670   21.9410 C.3   204  VAL204      0.0019
     83  N        -10.4750    2.3410   25.7690 N.3   206  TRP206     -0.1241
     84  CA       -10.9900    1.1270   25.0450 C.3   206  TRP206      0.1605
     85  C        -12.3520    0.6970   25.5060 C.2   206  TRP206      0.2264
     86  O        -12.7040    0.7540   26.7310 O.2   206  TRP206     -0.2867
     87  CB        -9.9590   -0.0050   25.2820 C.3   206  TRP206      0.0550
     88  CG        -8.8150    0.1280   24.3050 C.ar  206  TRP206      0.0003
     89  CD1       -7.6020    0.6310   24.5130 C.ar  206  TRP206      0.0946
     90  CD2       -8.8870   -0.3180   22.9540 C.ar  206  TRP206      0.0152
     91  NE1       -6.8540    0.5610   23.3530 N.ar  206  TRP206     -0.2442
     92  CE2       -7.5790   -0.0920   22.4130 C.ar  206  TRP206      0.0810
     93  CE3       -9.8640   -0.9410   22.2050 C.ar  206  TRP206      0.0012
     94  CZ2       -7.3450   -0.3540   21.0960 C.ar  206  TRP206      0.0191
     95  CZ3       -9.5580   -1.3550   20.8990 C.ar  206  TRP206      0.0001
     96  CH2       -8.3470   -1.0090   20.4000 C.ar  206  TRP206      0.0015
@<TRIPOS>BOND
     1     5     2    1
     2     5     6    1
     3    14    11    1
     4    14    15    1
     5    11    10    1
     6    11    12    1
     7     2     3    1
     8     2     1    1
     9     6     7    1
    10    12    13    2
    11     3     4    2
    12     8     7    2
    13     7     9   am
    14    15    16   ar
    15    15    17   ar
    16    16    18   ar
    17    17    19   ar
    18    20    21    1
    19    22    21    1
    20    22    23    1
    21    21    24    1
    22    18    19   ar
    23    33    32    1
    24    26    28   ar
    25    26    25   ar
    26    24    25    1
    27    28    29   ar
    28    25    27   ar
    29    75    73    1
    30    29    27   ar
    31    73    74    1
    32    73    70    1
    33    43    42    2
    34    30    31    1
    35    32    31    1
    36    46    44    1
    37    44    45    1
    38    44    41    1
    39    40    41    1
    40    31    34    1
    41    41    42    1
    42    34    35    1
    43    70    71    1
    44    70    69    1
    45    71    72    2
    46    36    35   ar
    47    36    38   ar
    48    35    37   ar
    49    69    64   am
    50    38    39   ar
    51    37    39   ar
    52    65    64    2
    53    67    66    1
    54    64    63    1
    55    60    59    1
    56    61    59    1
    57    52    51    1
    58    58    59    1
    59    58    55    1
    60    63    66    1
    61    63    62    1
    62    66    68    1
    63    62    56   am
    64    53    51    1
    65    51    48    1
    66    55    56    1
    67    55    54    1
    68    56    57    2
    69    48    49    1
    70    48    47    1
    71    96    95   ar
    72    96    94   ar
    73    49    50    2
    74    95    93   ar
    75    94    92   ar
    76    82    80    1
    77    93    90   ar
    78    92    90   ar
    79    92    91   ar
    80    81    80    1
    81    90    88   ar
    82    80    77    1
    83    91    89   ar
    84    77    76    1
    85    77    78    1
    86    88    89   ar
    87    88    87    1
    88    84    87    1
    89    84    85    1
    90    84    83    1
    91    78    79    2
    92    85    86    2
