@<TRIPOS>MOLECULE
tmp/1bcpK00.pdb
 95 88 0 0 0
SMALL
GASTEIGER

@<TRIPOS>ATOM
      1  N         38.8150   43.0290   74.3250 N.3    16  VAL16      -0.1245
      2  CA        38.1480   41.7390   74.2250 C.3    16  VAL16       0.1561
      3  C         39.1930   40.6420   74.2350 C.2    16  VAL16       0.2260
      4  O         40.3430   40.8940   73.8960 O.2    16  VAL16      -0.2867
      5  CB        37.3110   41.6600   72.9260 C.3    16  VAL16       0.0252
      6  CG1       36.3530   40.4960   72.9940 C.3    16  VAL16       0.0019
      7  CG2       36.5630   42.9620   72.6890 C.3    16  VAL16       0.0019
      8  N         39.6550   36.0760   73.8480 N.3    18  MET18      -0.1245
      9  CA        39.0670   34.7690   73.6660 C.3    18  MET18       0.1570
     10  C         39.8320   33.8470   74.5560 C.2    18  MET18       0.2261
     11  O         41.0410   34.0160   74.7230 O.2    18  MET18      -0.2867
     12  CB        39.2740   34.2960   72.2340 C.3    18  MET18       0.0387
     13  CG        38.5630   35.0790   71.2000 C.3    18  MET18       0.0595
     14  SD        36.9150   34.5530   71.3180 S.3    18  MET18      -0.1393
     15  CE        36.1140   35.9090   70.4720 C.3    18  MET18       0.0692
     16  N         34.4420   34.2790   76.3440 N.3    30  VAL30      -0.1245
     17  CA        34.6090   35.5200   75.5960 C.3    30  VAL30       0.1561
     18  C         34.6860   36.5340   76.7500 C.2    30  VAL30       0.2260
     19  O         33.6480   36.8540   77.3240 O.2    30  VAL30      -0.2867
     20  CB        33.3450   35.7910   74.7000 C.3    30  VAL30       0.0252
     21  CG1       33.3680   37.2250   74.1320 C.3    30  VAL30       0.0019
     22  CG2       33.2590   34.7490   73.5630 C.3    30  VAL30       0.0019
     23  N         30.5360   30.6630   75.5410 N.3    54  LYS54      -0.1245
     24  CA        30.2440   30.4160   74.1330 C.3    54  LYS54       0.1561
     25  C         30.1150   28.9180   73.8960 C.2    54  LYS54       0.2260
     26  O         30.9650   28.1420   74.3130 O.2    54  LYS54      -0.2867
     27  CB        31.3770   30.9530   73.2610 C.3    54  LYS54       0.0271
     28  CG        31.2170   30.6990   71.7660 C.3    54  LYS54       0.0035
     29  CD        32.1120   31.6860   71.0230 C.3    54  LYS54       0.0206
     30  CE        32.1690   31.4200   69.5390 C.3    54  LYS54       0.1093
     31  NZ        30.8120   31.3900   68.9710 N.3    54  LYS54      -0.1314
     32  N         28.2920   29.8380   64.4310 N.3    60  GLY60      -0.1210
     33  CA        27.8900   31.2280   64.3620 C.3    60  GLY60       0.1956
     34  C         28.1050   32.0730   65.6060 C.2    60  GLY60       0.2612
     35  O         28.5260   31.5780   66.6580 O.2    60  GLY60      -0.2717
     36  N         27.8790   33.3770   65.4660 N.am   61  SER61      -0.1952
     37  CA        28.0110   34.2920   66.5830 C.3    61  SER61       0.1924
     38  C         26.6530   34.4810   67.2330 C.2    61  SER61       0.2314
     39  O         25.6400   34.7400   66.5640 O.2    61  SER61      -0.2863
     40  CB        28.5460   35.6420   66.1380 C.3    61  SER61       0.2116
     41  OG        29.7560   35.4790   65.4430 O.3    61  SER61      -0.2180
     42  N         27.4890   37.9350   71.2240 N.3    65  GLU65      -0.1231
     43  CA        28.6760   38.0510   70.3960 C.3    65  GLU65       0.1699
     44  C         28.6230   39.1020   69.2900 C.2    65  GLU65       0.2592
     45  O         29.6150   39.7980   69.0700 O.2    65  GLU65      -0.2718
     46  CB        29.0230   36.7090   69.8010 C.3    65  GLU65       0.0402
     47  CG        29.8490   35.8650   70.7120 C.3    65  GLU65       0.1161
     48  CD        29.9940   34.4570   70.1810 C.2    65  GLU65       0.3649
     49  OE1       30.8100   34.2250   69.2700 O.co2  65  GLU65      -0.2457
     50  OE2       29.2700   33.5640   70.6590 O.co2  65  GLU65      -0.2457
     51  N         27.4970   39.2280   68.5870 N.am   66  VAL66      -0.1980
     52  CA        27.3940   40.2350   67.5220 C.3    66  VAL66       0.1595
     53  C         27.4000   41.6530   68.1020 C.2    66  VAL66       0.2287
     54  O         27.9520   42.5790   67.5180 O.2    66  VAL66      -0.2864
     55  CB        26.1500   40.0070   66.6520 C.3    66  VAL66       0.0276
     56  CG1       25.9890   41.1120   65.6430 C.3    66  VAL66       0.0022
     57  CG2       26.2480   38.6610   65.9870 C.3    66  VAL66       0.0022
     58  N         28.7970   42.6350   71.2550 N.3    68  LEU68      -0.1231
     59  CA        30.1010   42.9010   71.8620 C.3    68  LEU68       0.1693
     60  C         31.0680   43.4090   70.8100 C.2    68  LEU68       0.2591
     61  O         31.8450   44.3410   71.0560 O.2    68  LEU68      -0.2718
     62  CB        30.6450   41.6250   72.5220 C.3    68  LEU68       0.0284
     63  CG        31.9530   41.7270   73.3140 C.3    68  LEU68       0.0019
     64  CD1       31.8800   42.8770   74.2740 C.3    68  LEU68       0.0001
     65  CD2       32.2200   40.4450   74.0490 C.3    68  LEU68       0.0001
     66  N         30.9420   42.8270   69.6170 N.am   69  ARG69      -0.1980
     67  CA        31.7820   43.1490   68.4750 C.3    69  ARG69       0.1597
     68  C         31.3880   44.5280   67.9790 C.2    69  ARG69       0.2287
     69  O         32.2360   45.3840   67.7910 O.2    69  ARG69      -0.2864
     70  CB        31.5930   42.0980   67.3740 C.3    69  ARG69       0.0334
     71  CG        32.7970   41.8910   66.4430 C.3    69  ARG69       0.0492
     72  CD        32.3930   41.2500   65.0980 C.3    69  ARG69       0.2205
     73  NE        33.5370   41.0130   64.2120 N.pl3  69  ARG69      -0.0865
     74  CZ        33.7570   39.8650   63.5570 C.cat  69  ARG69       0.5346
     75  NH1       32.9000   38.8540   63.6840 N.pl3  69  ARG69       0.1354
     76  NH2       34.8700   39.6930   62.8340 N.pl3  69  ARG69       0.1354
     77  N         32.1180   47.2960   70.7630 N.3    72  PHE72      -0.1227
     78  CA        33.5550   47.3640   71.0100 C.3    72  PHE72       0.1736
     79  C         34.3450   48.0280   69.8510 C.2    72  PHE72       0.2595
     80  O         35.4840   48.4460   70.0350 O.2    72  PHE72      -0.2718
     81  CB        34.0920   45.9560   71.2780 C.3    72  PHE72       0.0547
     82  CG        35.5920   45.8250   71.1260 C.ar   72  PHE72      -0.0202
     83  CD1       36.4710   46.4630   72.0070 C.ar   72  PHE72      -0.0042
     84  CD2       36.1250   45.0640   70.1080 C.ar   72  PHE72      -0.0042
     85  CE1       37.8370   46.3430   71.8710 C.ar   72  PHE72      -0.0003
     86  CE2       37.4990   44.9410   69.9680 C.ar   72  PHE72      -0.0003
     87  CZ        38.3520   45.5820   70.8520 C.ar   72  PHE72      -0.0000
     88  N         33.7820   48.0830   68.6480 N.am   73  MET73      -0.1979
     89  CA        34.4920   48.6910   67.5190 C.3    73  MET73       0.1605
     90  C         34.1260   50.1430   67.4380 C.2    73  MET73       0.2287
     91  O         34.9080   50.9820   66.9840 O.2    73  MET73      -0.2864
     92  CB        34.0900   48.0200   66.2240 C.3    73  MET73       0.0413
     93  CG        34.5710   46.6020   66.0940 C.3    73  MET73       0.0598
     94  SD        36.2020   46.5130   65.3730 S.3    73  MET73      -0.1393
     95  CE        35.7580   45.9810   63.7610 C.3    73  MET73       0.0692
@<TRIPOS>BOND
     1    76    74    1
     2    74    75    1
     3    74    73    2
     4    95    94    1
     5    73    72    1
     6    33    32    1
     7    33    34    1
     8    72    71    1
     9    94    93    1
    10    41    40    1
    11    36    34   am
    12    36    37    1
    13    34    35    2
    14    56    55    1
    15    57    55    1
    16    93    92    1
    17    40    37    1
    18    92    89    1
    19    71    70    1
    20    39    38    2
    21    37    38    1
    22    55    52    1
    23    91    90    2
    24    70    67    1
    25    90    89    1
    26    54    53    2
    27    89    88    1
    28    52    53    1
    29    52    51    1
    30    69    68    2
    31    68    67    1
    32    67    66    1
    33    51    44   am
    34    88    79   am
    35    31    30    1
    36    45    44    2
    37    49    48   ar
    38    44    43    1
    39    30    29    1
    40    66    60   am
    41    46    43    1
    42    46    47    1
    43    79    80    2
    44    79    78    1
    45    86    84   ar
    46    86    87   ar
    47    84    82   ar
    48    48    50   ar
    49    48    47    1
    50    43    42    1
    51    15    14    1
    52    77    78    1
    53    60    61    2
    54    60    59    1
    55    87    85   ar
    56    78    81    1
    57    29    28    1
    58    82    81    1
    59    82    83   ar
    60    13    14    1
    61    13    12    1
    62    58    59    1
    63    28    27    1
    64    59    62    1
    65    85    83   ar
    66    12     9    1
    67    62    63    1
    68     7     5    1
    69     5     6    1
    70     5     2    1
    71    27    24    1
    72    63    65    1
    73    63    64    1
    74    22    20    1
    75     9     8    1
    76     9    10    1
    77     4     3    2
    78    25    24    1
    79    25    26    2
    80    21    20    1
    81    24    23    1
    82     2     3    1
    83     2     1    1
    84    10    11    2
    85    20    17    1
    86    17    16    1
    87    17    18    1
    88    18    19    2
