@<TRIPOS>MOLECULE
tmp/1bcrA00.pdb
 102 100 0 0 0
SMALL
GASTEIGER

@<TRIPOS>ATOM
      1  N         64.3400   32.3110   75.9490 N.3    56  GLY56      -0.1210
      2  CA        65.6530   31.8270   76.2660 C.3    56  GLY56       0.1956
      3  C         66.6040   32.8960   76.7020 C.2    56  GLY56       0.2612
      4  O         66.4290   33.5460   77.7230 O.2    56  GLY56      -0.2717
      5  N         67.6360   33.0560   75.9070 N.am   57  GLY57      -0.1942
      6  CA        68.6940   34.0050   76.1710 C.3    57  GLY57       0.2002
      7  C         70.0150   33.2120   76.1890 C.2    57  GLY57       0.2518
      8  O         70.7120   33.1020   75.1850 O.2    57  GLY57      -0.2726
      9  N         70.3610   32.5590   77.2980 N.am   58  PRO58      -0.2503
     10  CA        69.6740   32.5520   78.5700 C.3    58  PRO58       0.1487
     11  C         69.6670   33.9480   79.0650 C.2    58  PRO58       0.2276
     12  O         70.5660   34.6720   78.6730 O.2    58  PRO58      -0.2865
     13  CB        70.5910   31.7450   79.4870 C.3    58  PRO58       0.0556
     14  CG        71.8880   31.4490   78.7420 C.2    58  PRO58      -0.0078
     15  CD        71.7590   32.0650   77.3730 C.2    58  PRO58       0.0634
     16  N         66.6750   35.9230   78.9830 N.3    60  CYS60      -0.1235
     17  CA        65.5640   36.6760   78.4240 C.3    60  CYS60       0.1677
     18  C         64.2400   36.2910   79.0170 C.2    60  CYS60       0.2270
     19  O         63.9860   35.1400   79.3840 O.2    60  CYS60      -0.2867
     20  CB        65.5520   36.6950   76.8880 C.3    60  CYS60       0.0956
     21  SG        67.1190   37.3350   76.2260 S.3    60  CYS60      -0.0801
     22  N         58.9800   38.7430   75.5360 N.3    65  TYR65      -0.1241
     23  CA        58.8860   38.1790   74.2090 C.3    65  TYR65       0.1605
     24  C         57.6060   37.4360   73.9260 C.2    65  TYR65       0.2264
     25  O         56.7090   37.9170   73.2000 O.2    65  TYR65      -0.2867
     26  CB        60.0880   37.2870   73.9580 C.3    65  TYR65       0.0534
     27  CG        61.2980   38.1600   73.8840 C.ar   65  TYR65      -0.0201
     28  CD1       61.4940   38.9710   72.7670 C.ar   65  TYR65      -0.0009
     29  CD2       62.1880   38.2560   74.9490 C.ar   65  TYR65      -0.0009
     30  CE1       62.5770   39.8400   72.6890 C.ar   65  TYR65       0.0417
     31  CE2       63.2870   39.1120   74.8800 C.ar   65  TYR65       0.0417
     32  CZ        63.4720   39.9050   73.7530 C.ar   65  TYR65       0.1957
     33  OH        64.5390   40.7520   73.6760 O.3    65  TYR65      -0.2866
     34  N         64.6390   28.9650   71.0980 N.3   153  SER153     -0.1202
     35  CA        66.0460   29.1980   71.2030 C.3   153  SER153      0.2020
     36  C         66.7080   28.4970   72.3880 C.2   153  SER153      0.2618
     37  O         66.7220   27.2630   72.4430 O.2   153  SER153     -0.2717
     38  CB        66.1950   30.7060   71.2990 C.3   153  SER153      0.2103
     39  OG        67.5450   30.9890   71.5970 O.3   153  SER153     -0.2182
     40  N         67.3000   29.2790   73.3060 N.am  154  TYR154     -0.1975
     41  CA        67.9750   28.6960   74.4680 C.3   154  TYR154      0.1639
     42  C         67.0480   27.8280   75.2830 C.2   154  TYR154      0.2290
     43  O         67.4890   26.8820   75.9640 O.2   154  TYR154     -0.2864
     44  CB        68.8110   29.6390   75.3460 C.3   154  TYR154      0.0560
     45  CG        69.7400   28.8400   76.2070 C.ar  154  TYR154     -0.0198
     46  CD1       70.9520   28.3670   75.7120 C.ar  154  TYR154     -0.0009
     47  CD2       69.3730   28.4910   77.5010 C.ar  154  TYR154     -0.0009
     48  CE1       71.7990   27.5740   76.4870 C.ar  154  TYR154      0.0417
     49  CE2       70.2060   27.6980   78.2890 C.ar  154  TYR154      0.0417
     50  CZ        71.4230   27.2480   77.7880 C.ar  154  TYR154      0.1957
     51  OH        72.2210   26.4510   78.5700 O.3   154  TYR154     -0.2866
     52  N         68.3300   25.1470   70.4950 N.3   185  LEU185     -0.1245
     53  CA        69.5620   24.3790   70.6490 C.3   185  LEU185      0.1561
     54  C         69.2230   22.9430   70.9270 C.2   185  LEU185      0.2260
     55  O         68.2810   22.6350   71.6700 O.2   185  LEU185     -0.2867
     56  CB        70.4710   24.8640   71.7840 C.3   185  LEU185      0.0270
     57  CG        70.8330   26.3590   71.7300 C.3   185  LEU185      0.0019
     58  CD1       71.8290   26.6550   72.8410 C.3   185  LEU185      0.0001
     59  CD2       71.5060   26.6970   70.4080 C.3   185  LEU185      0.0001
     60  N         76.4070   23.5690   65.2810 N.3   192  TYR192     -0.1241
     61  CA        77.4530   24.4470   64.8080 C.3   192  TYR192      0.1605
     62  C         77.5500   24.2890   63.3040 C.2   192  TYR192      0.2264
     63  O         77.4780   25.2500   62.5490 O.2   192  TYR192     -0.2867
     64  CB        78.7930   24.1380   65.4440 C.3   192  TYR192      0.0534
     65  CG        79.0830   25.1650   66.4880 C.ar  192  TYR192     -0.0201
     66  CD1       78.8350   26.5150   66.2530 C.ar  192  TYR192     -0.0009
     67  CD2       79.5870   24.7720   67.7250 C.ar  192  TYR192     -0.0009
     68  CE1       79.1410   27.4590   67.2320 C.ar  192  TYR192      0.0417
     69  CE2       79.8730   25.7030   68.7230 C.ar  192  TYR192      0.0417
     70  CZ        79.6490   27.0540   68.4640 C.ar  192  TYR192      0.1957
     71  OH        79.9290   28.0070   69.4150 O.3   192  TYR192     -0.2866
     72  N         78.2480   25.8420   72.2860 N.3   222  PHE222     -0.1227
     73  CA        77.5730   26.9810   71.7800 C.3   222  PHE222      0.1736
     74  C         77.5890   28.1540   72.7140 C.2   222  PHE222      0.2595
     75  O         77.5260   29.3050   72.3250 O.2   222  PHE222     -0.2718
     76  CB        76.1190   26.5990   71.6840 C.3   222  PHE222      0.0547
     77  CG        75.6720   26.7830   70.2960 C.ar  222  PHE222     -0.0202
     78  CD1       76.0250   25.8270   69.3410 C.ar  222  PHE222     -0.0042
     79  CD2       74.9400   27.9140   69.9360 C.ar  222  PHE222     -0.0042
     80  CE1       75.6210   25.9860   68.0170 C.ar  222  PHE222     -0.0003
     81  CE2       74.5220   28.0800   68.6130 C.ar  222  PHE222     -0.0003
     82  CZ        74.8700   27.1140   67.6670 C.ar  222  PHE222     -0.0000
     83  N         77.5930   27.8360   73.9730 N.am  223  ILE223     -0.1980
     84  CA        77.4790   28.8460   74.9850 C.3   223  ILE223      0.1595
     85  C         78.8080   29.3230   75.6140 C.2   223  ILE223      0.2287
     86  O         78.8680   30.3510   76.2790 O.2   223  ILE223     -0.2864
     87  CB        76.3610   28.3840   75.9400 C.3   223  ILE223      0.0276
     88  CG1       75.4490   29.4820   76.3750 C.3   223  ILE223      0.0022
     89  CG2       76.8510   27.6350   77.1580 C.3   223  ILE223      0.0022
     90  CD1       75.7570   29.8540   77.8160 C.3   223  ILE223      0.0001
     91  N         67.8950   37.5740   63.0280 N.3   246  TYR246     -0.1241
     92  CA        66.7680   36.7420   63.4080 C.3   246  TYR246      0.1605
     93  C         65.7110   36.6230   62.3690 C.2   246  TYR246      0.2264
     94  O         64.7600   35.8530   62.5380 O.2   246  TYR246     -0.2867
     95  CB        66.0960   37.2580   64.6850 C.3   246  TYR246      0.0534
     96  CG        67.0120   37.2120   65.8710 C.ar  246  TYR246     -0.0201
     97  CD1       67.9040   38.2480   66.1130 C.ar  246  TYR246     -0.0009
     98  CD2       67.0190   36.1220   66.7300 C.ar  246  TYR246     -0.0009
     99  CE1       68.7980   38.2040   67.1780 C.ar  246  TYR246      0.0417
    100  CE2       67.8680   36.0790   67.8350 C.ar  246  TYR246      0.0417
    101  CZ        68.7610   37.1200   68.0480 C.ar  246  TYR246      0.1957
    102  OH        69.6370   37.0590   69.1000 O.3   246  TYR246     -0.2866
@<TRIPOS>BOND
     1    93    94    2
     2    93    92    1
     3    63    62    2
     4    91    92    1
     5    62    61    1
     6    92    95    1
     7    95    96    1
     8    61    60    1
     9    61    64    1
    10    64    65    1
    11    96    97   ar
    12    96    98   ar
    13    97    99   ar
    14    66    65   ar
    15    66    68   ar
    16    65    67   ar
    17    98   100   ar
    18    99   101   ar
    19    68    70   ar
    20    82    80   ar
    21    82    81   ar
    22    67    69   ar
    23   100   101   ar
    24    80    78   ar
    25   101   102    1
    26    70    69   ar
    27    70    71    1
    28    81    79   ar
    29    78    77   ar
    30    79    77   ar
    31    77    76    1
    32    59    57    1
    33    52    53    1
    34    53    54    1
    35    53    56    1
    36    54    55    2
    37    34    35    1
    38    35    38    1
    39    35    36    1
    40    38    39    1
    41    76    73    1
    42    57    56    1
    43    57    58    1
    44    73    72    1
    45    73    74    1
    46    75    74    2
    47    36    37    2
    48    36    40   am
    49    30    28   ar
    50    30    32   ar
    51    74    83   am
    52    28    27   ar
    53    25    24    2
    54    40    41    1
    55    33    32    1
    56    32    31   ar
    57    27    26    1
    58    27    29   ar
    59    24    23    1
    60    26    23    1
    61    83    84    1
    62    23    22    1
    63    41    42    1
    64    41    44    1
    65    31    29   ar
    66    84    85    1
    67    84    87    1
    68     8     7    2
    69    42    43    2
    70    44    45    1
    71    85    86    2
    72    46    45   ar
    73    46    48   ar
    74     5     6    1
    75     5     3   am
    76    87    88    1
    77    87    89    1
    78     1     2    1
    79     6     7    1
    80     7     9   am
    81    45    47   ar
    82    21    20    1
    83     2     3    1
    84    88    90    1
    85    48    50   ar
    86     3     4    2
    87    20    17    1
    88     9    15    1
    89     9    10    1
    90    15    14    2
    91    47    49   ar
    92    50    49   ar
    93    50    51    1
    94    17    16    1
    95    17    18    1
    96    10    11    1
    97    10    13    1
    98    12    11    2
    99    14    13    1
   100    18    19    2
