@<TRIPOS>MOLECULE
tmp/1bcsA01.pdb
 78 73 0 0 0
SMALL
GASTEIGER

@<TRIPOS>ATOM
      1  N         59.3520   30.8260   76.7330 N.3    55  ASN55      -0.1225
      2  CA        60.2740   31.4560   75.8390 C.3    55  ASN55       0.1785
      3  C         61.7500   31.0740   76.2270 C.2    55  ASN55       0.2598
      4  O         62.0010   30.3990   77.2410 O.2    55  ASN55      -0.2718
      5  CB        59.9800   32.9340   75.6990 C.3    55  ASN55       0.1169
      6  CG        58.8830   33.1330   74.7120 C.2    55  ASN55       0.2627
      7  OD1       57.7100   33.3420   75.0700 O.2    55  ASN55      -0.2716
      8  ND2       59.2920   33.1070   73.4520 N.am   55  ASN55      -0.0877
      9  N         62.7330   31.4040   75.3660 N.am   56  GLY56      -0.1942
     10  CA        64.1130   30.9880   75.5760 C.3    56  GLY56       0.2014
     11  C         65.0640   32.0810   75.9800 C.2    56  GLY56       0.2639
     12  O         64.8770   32.7120   76.9940 O.2    56  GLY56      -0.2714
     13  N         66.1130   32.2610   75.1960 N.am   57  GLY57      -0.1954
     14  CA        67.1120   33.2560   75.4790 C.3    57  GLY57       0.1869
     15  C         68.4480   32.5640   75.4450 C.2    57  GLY57       0.2309
     16  O         69.0790   32.5080   74.3950 O.2    57  GLY57      -0.2863
     17  N         65.0190   35.2830   78.3490 N.3    60  CYS60      -0.1235
     18  CA        63.8880   35.9770   77.6860 C.3    60  CYS60       0.1677
     19  C         62.5500   35.6210   78.3230 C.2    60  CYS60       0.2270
     20  O         62.3410   34.5020   78.8150 O.2    60  CYS60      -0.2867
     21  CB        63.9070   35.9190   76.1460 C.3    60  CYS60       0.0956
     22  SG        65.4290   36.6660   75.5080 S.3    60  CYS60      -0.0801
     23  N         57.3560   37.7930   75.1170 N.3    65  TYR65      -0.1241
     24  CA        57.2690   37.2340   73.7690 C.3    65  TYR65       0.1605
     25  C         56.0100   36.4950   73.5450 C.2    65  TYR65       0.2264
     26  O         55.0760   36.9640   72.8610 O.2    65  TYR65      -0.2867
     27  CB        58.4950   36.3120   73.5420 C.3    65  TYR65       0.0534
     28  CG        59.7250   37.2150   73.4130 C.ar   65  TYR65      -0.0201
     29  CD1       59.9470   37.9260   72.2230 C.ar   65  TYR65      -0.0009
     30  CD2       60.6450   37.3700   74.4540 C.ar   65  TYR65      -0.0009
     31  CE1       60.9650   38.8670   72.0560 C.ar   65  TYR65       0.0417
     32  CE2       61.6520   38.3230   74.3270 C.ar   65  TYR65       0.0417
     33  CZ        61.8340   39.0390   73.1350 C.ar   65  TYR65       0.1957
     34  OH        62.8650   39.9520   73.0610 O.3    65  TYR65      -0.2866
     35  N         53.7350   39.2560   71.9060 N.3    69  GLU69      -0.1245
     36  CA        53.9290   39.3850   70.4820 C.3    69  GLU69       0.1567
     37  C         53.7970   38.0500   69.7640 C.2    69  GLU69       0.2260
     38  O         54.1540   37.9440   68.6160 O.2    69  GLU69      -0.2867
     39  CB        55.2380   40.0720   70.0780 C.3    69  GLU69       0.0388
     40  CG        56.4960   39.5050   70.7640 C.3    69  GLU69       0.1160
     41  CD        57.7910   40.0710   70.2010 C.2    69  GLU69       0.3649
     42  OE1       58.1080   41.2350   70.6790 O.co2  69  GLU69      -0.2457
     43  OE2       58.4840   39.5060   69.3780 O.co2  69  GLU69      -0.2457
     44  N         59.8970   27.8690   72.4240 N.3   152  GLU152     -0.1231
     45  CA        60.7050   27.9980   71.2610 C.3   152  GLU152      0.1699
     46  C         62.0970   28.3990   71.6600 C.2   152  GLU152      0.2592
     47  O         62.4030   28.7530   72.8200 O.2   152  GLU152     -0.2718
     48  CB        60.0740   29.0490   70.3800 C.3   152  GLU152      0.0402
     49  CG        60.1690   30.3870   71.1190 C.3   152  GLU152      0.1161
     50  CD        59.5170   31.5980   70.4380 C.2   152  GLU152      0.3649
     51  OE1       58.3320   31.3520   69.9480 O.co2 152  GLU152     -0.2457
     52  OE2       60.0030   32.7290   70.3940 O.co2 152  GLU152     -0.2457
     53  N         62.9700   28.2390   70.6850 N.am  153  SER153     -0.1952
     54  CA        64.3740   28.5910   70.8440 C.3   153  SER153      0.1924
     55  C         65.1050   27.9220   72.0230 C.2   153  SER153      0.2314
     56  O         65.2570   26.7020   72.0350 O.2   153  SER153     -0.2863
     57  CB        64.4960   30.1040   70.9780 C.3   153  SER153      0.2116
     58  OG        65.7820   30.5210   70.5730 O.3   153  SER153     -0.2180
     59  N         67.1020   41.0830   59.6710 N.3   244  ASP244     -0.1239
     60  CA        66.6270   40.4230   60.8590 C.3   244  ASP244      0.1674
     61  C         66.9150   38.9040   60.7550 C.2   244  ASP244      0.2266
     62  O         66.1940   38.1770   60.0460 O.2   244  ASP244     -0.2867
     63  CB        65.1170   40.5670   60.8420 C.3   244  ASP244      0.1410
     64  CG        64.4560   40.0380   62.0780 C.2   244  ASP244      0.3668
     65  OD1       65.2630   39.4370   62.9370 O.co2 244  ASP244     -0.2456
     66  OD2       63.2630   40.1690   62.2460 O.co2 244  ASP244     -0.2456
     67  N         66.0910   36.6510   62.6690 N.3   246  TYR246     -0.1241
     68  CA        64.9590   35.8440   63.1600 C.3   246  TYR246      0.1605
     69  C         63.8300   35.7740   62.1230 C.2   246  TYR246      0.2264
     70  O         62.8000   35.1690   62.3830 O.2   246  TYR246     -0.2867
     71  CB        64.3290   36.5000   64.4230 C.3   246  TYR246      0.0534
     72  CG        65.2850   36.4690   65.5750 C.ar  246  TYR246     -0.0201
     73  CD1       66.1850   37.5110   65.7520 C.ar  246  TYR246     -0.0009
     74  CD2       65.2990   35.4300   66.5050 C.ar  246  TYR246     -0.0009
     75  CE1       67.1410   37.4480   66.7670 C.ar  246  TYR246      0.0417
     76  CE2       66.2110   35.3900   67.5650 C.ar  246  TYR246      0.0417
     77  CZ        67.1700   36.3970   67.6870 C.ar  246  TYR246      0.1957
     78  OH        68.1300   36.3890   68.7050 O.3   246  TYR246     -0.2866
@<TRIPOS>BOND
     1    59    60    1
     2    62    61    2
     3    61    60    1
     4    63    60    1
     5    63    64    1
     6    64    66   ar
     7    64    65   ar
     8    69    70    2
     9    69    68    1
    10    67    68    1
    11    68    71    1
    12    71    72    1
    13    72    73   ar
    14    72    74   ar
    15    73    75   ar
    16    74    76   ar
    17    75    77   ar
    18    76    77   ar
    19    77    78    1
    20    38    37    2
    21    43    41   ar
    22    37    36    1
    23    51    50   ar
    24    39    36    1
    25    39    40    1
    26    41    42   ar
    27    41    40    1
    28    48    49    1
    29    48    45    1
    30    52    50   ar
    31    50    49    1
    32    36    35    1
    33    58    57    1
    34    53    54    1
    35    53    46   am
    36    54    57    1
    37    54    55    1
    38    45    46    1
    39    45    44    1
    40    46    47    2
    41    55    56    2
    42    31    29   ar
    43    31    33   ar
    44    29    28   ar
    45    26    25    2
    46    34    33    1
    47    33    32   ar
    48    28    27    1
    49    28    30   ar
    50     8     6   am
    51    27    24    1
    52    25    24    1
    53    24    23    1
    54    32    30   ar
    55    16    15    2
    56     6     7    2
    57     6     5    1
    58    13    14    1
    59    13    11   am
    60     9    10    1
    61     9     3   am
    62    15    14    1
    63    22    21    1
    64    10    11    1
    65     5     2    1
    66     2     3    1
    67     2     1    1
    68    11    12    2
    69    21    18    1
    70     3     4    2
    71    18    19    1
    72    18    17    1
    73    19    20    2
