@<TRIPOS>MOLECULE
tmp/1bcsA00.pdb
 101 100 0 0 0
SMALL
GASTEIGER

@<TRIPOS>ATOM
      1  N         62.7330   31.4040   75.3660 N.3    56  GLY56      -0.1210
      2  CA        64.1130   30.9880   75.5760 C.3    56  GLY56       0.1956
      3  C         65.0640   32.0810   75.9800 C.2    56  GLY56       0.2612
      4  O         64.8770   32.7120   76.9940 O.2    56  GLY56      -0.2717
      5  N         66.1130   32.2610   75.1960 N.am   57  GLY57      -0.1942
      6  CA        67.1120   33.2560   75.4790 C.3    57  GLY57       0.1998
      7  C         68.4480   32.5640   75.4450 C.2    57  GLY57       0.2481
      8  O         69.0790   32.5080   74.3950 O.2    57  GLY57      -0.2729
      9  N         68.8400   31.9410   76.5760 N.am   58  PRO58      -0.2715
     10  CA        68.1360   31.9700   77.8630 C.3    58  PRO58       0.1536
     11  C         68.1570   33.3820   78.4700 C.2    58  PRO58       0.2599
     12  O         69.0740   34.1740   78.1810 O.2    58  PRO58      -0.2715
     13  CB        68.9230   31.0280   78.7650 C.3    58  PRO58       0.0310
     14  CG        70.3290   31.0170   78.2110 C.3    58  PRO58       0.0237
     15  CD        70.1320   31.2160   76.7120 C.3    58  PRO58       0.0939
     16  N         67.0850   33.7220   79.2400 N.am   59  GLY59      -0.1941
     17  CA        66.9440   35.0290   79.8720 C.3    59  GLY59       0.2014
     18  C         65.8270   35.8730   79.2780 C.2    59  GLY59       0.2639
     19  O         65.7190   37.0550   79.6350 O.2    59  GLY59      -0.2714
     20  N         65.0190   35.2830   78.3490 N.am   60  CYS60      -0.1967
     21  CA        63.8880   35.9770   77.6860 C.3    60  CYS60       0.1712
     22  C         62.5500   35.6210   78.3230 C.2    60  CYS60       0.2296
     23  O         62.3410   34.5020   78.8150 O.2    60  CYS60      -0.2864
     24  CB        63.9070   35.9190   76.1460 C.3    60  CYS60       0.0983
     25  SG        65.4290   36.6660   75.5080 S.3    60  CYS60      -0.0798
     26  N         57.3560   37.7930   75.1170 N.3    65  TYR65      -0.1241
     27  CA        57.2690   37.2340   73.7690 C.3    65  TYR65       0.1605
     28  C         56.0100   36.4950   73.5450 C.2    65  TYR65       0.2264
     29  O         55.0760   36.9640   72.8610 O.2    65  TYR65      -0.2867
     30  CB        58.4950   36.3120   73.5420 C.3    65  TYR65       0.0534
     31  CG        59.7250   37.2150   73.4130 C.ar   65  TYR65      -0.0201
     32  CD1       59.9470   37.9260   72.2230 C.ar   65  TYR65      -0.0009
     33  CD2       60.6450   37.3700   74.4540 C.ar   65  TYR65      -0.0009
     34  CE1       60.9650   38.8670   72.0560 C.ar   65  TYR65       0.0417
     35  CE2       61.6520   38.3230   74.3270 C.ar   65  TYR65       0.0417
     36  CZ        61.8340   39.0390   73.1350 C.ar   65  TYR65       0.1957
     37  OH        62.8650   39.9520   73.0610 O.3    65  TYR65      -0.2866
     38  N         62.9700   28.2390   70.6850 N.3   153  SER153     -0.1202
     39  CA        64.3740   28.5910   70.8440 C.3   153  SER153      0.2020
     40  C         65.1050   27.9220   72.0230 C.2   153  SER153      0.2618
     41  O         65.2570   26.7020   72.0350 O.2   153  SER153     -0.2717
     42  CB        64.4960   30.1040   70.9780 C.3   153  SER153      0.2103
     43  OG        65.7820   30.5210   70.5730 O.3   153  SER153     -0.2182
     44  N         65.6290   28.7030   73.0000 N.am  154  TYR154     -0.1975
     45  CA        66.3560   28.0660   74.1040 C.3   154  TYR154      0.1639
     46  C         65.4240   27.1270   74.9090 C.2   154  TYR154      0.2290
     47  O         65.8210   26.1320   75.5880 O.2   154  TYR154     -0.2864
     48  CB        67.0490   29.1210   74.9880 C.3   154  TYR154      0.0560
     49  CG        68.0280   28.3810   75.8240 C.ar  154  TYR154     -0.0198
     50  CD1       69.1940   27.9350   75.2070 C.ar  154  TYR154     -0.0009
     51  CD2       67.8050   28.0530   77.1640 C.ar  154  TYR154     -0.0009
     52  CE1       70.1440   27.1840   75.8950 C.ar  154  TYR154      0.0417
     53  CE2       68.7520   27.3020   77.8690 C.ar  154  TYR154      0.0417
     54  CZ        69.9140   26.8520   77.2320 C.ar  154  TYR154      0.1957
     55  OH        70.8180   26.0370   77.8720 O.3   154  TYR154     -0.2866
     56  N         66.6220   24.5420   70.2030 N.3   185  LEU185     -0.1245
     57  CA        67.8310   23.8110   70.3780 C.3   185  LEU185      0.1561
     58  C         67.4410   22.3830   70.7230 C.2   185  LEU185      0.2260
     59  O         66.6250   22.0850   71.6400 O.2   185  LEU185     -0.2867
     60  CB        68.6970   24.3730   71.5170 C.3   185  LEU185      0.0270
     61  CG        69.6450   25.5060   71.1510 C.3   185  LEU185      0.0019
     62  CD1       68.8050   26.7010   70.7850 C.3   185  LEU185      0.0001
     63  CD2       70.4390   25.8970   72.3950 C.3   185  LEU185      0.0001
     64  N         75.7290   25.7140   71.4360 N.3   222  PHE222     -0.1227
     65  CA        75.2520   27.0390   71.0430 C.3   222  PHE222      0.1736
     66  C         75.4880   28.0800   72.1150 C.2   222  PHE222      0.2595
     67  O         75.7670   29.2460   71.8390 O.2   222  PHE222     -0.2718
     68  CB        73.7220   27.0870   70.8500 C.3   222  PHE222      0.0547
     69  CG        73.3500   26.7690   69.4300 C.ar  222  PHE222     -0.0202
     70  CD1       74.1040   25.8280   68.7230 C.ar  222  PHE222     -0.0042
     71  CD2       72.2870   27.3710   68.7630 C.ar  222  PHE222     -0.0042
     72  CE1       73.8220   25.4910   67.4000 C.ar  222  PHE222     -0.0003
     73  CE2       71.9910   27.0530   67.4330 C.ar  222  PHE222     -0.0003
     74  CZ        72.7650   26.1150   66.7460 C.ar  222  PHE222     -0.0000
     75  N         75.2270   27.6960   73.3410 N.am  223  ILE223     -0.1980
     76  CA        75.2700   28.6280   74.4390 C.3   223  ILE223      0.1595
     77  C         76.6790   28.9950   74.8700 C.2   223  ILE223      0.2287
     78  O         76.9620   30.1150   75.3080 O.2   223  ILE223     -0.2864
     79  CB        74.3040   28.1610   75.5510 C.3   223  ILE223      0.0276
     80  CG1       74.3150   29.0340   76.7660 C.3   223  ILE223      0.0022
     81  CG2       74.6040   26.7460   76.0000 C.3   223  ILE223      0.0022
     82  CD1       73.7690   30.4140   76.4220 C.3   223  ILE223      0.0001
     83  N         79.9670   28.9050   72.8880 N.3   225  PRO225     -0.2116
     84  CA        80.8830   28.6970   71.7850 C.3   225  PRO225      0.1372
     85  C         82.3620   28.9370   72.1630 C.2   225  PRO225      0.2244
     86  O         82.6900   29.7440   73.0300 O.2   225  PRO225     -0.2868
     87  CB        80.4560   29.7060   70.7200 C.3   225  PRO225      0.0268
     88  CG        79.6140   30.7330   71.4600 C.3   225  PRO225      0.0207
     89  CD        79.1220   30.0930   72.7350 C.3   225  PRO225      0.0892
     90  N         66.0910   36.6510   62.6690 N.3   246  TYR246     -0.1241
     91  CA        64.9590   35.8440   63.1600 C.3   246  TYR246      0.1605
     92  C         63.8300   35.7740   62.1230 C.2   246  TYR246      0.2264
     93  O         62.8000   35.1690   62.3830 O.2   246  TYR246     -0.2867
     94  CB        64.3290   36.5000   64.4230 C.3   246  TYR246      0.0534
     95  CG        65.2850   36.4690   65.5750 C.ar  246  TYR246     -0.0201
     96  CD1       66.1850   37.5110   65.7520 C.ar  246  TYR246     -0.0009
     97  CD2       65.2990   35.4300   66.5050 C.ar  246  TYR246     -0.0009
     98  CE1       67.1410   37.4480   66.7670 C.ar  246  TYR246      0.0417
     99  CE2       66.2110   35.3900   67.5650 C.ar  246  TYR246      0.0417
    100  CZ        67.1700   36.3970   67.6870 C.ar  246  TYR246      0.1957
    101  OH        68.1300   36.3890   68.7050 O.3   246  TYR246     -0.2866
@<TRIPOS>BOND
     1    92    93    2
     2    92    91    1
     3    90    91    1
     4    91    94    1
     5    94    95    1
     6    95    96   ar
     7    95    97   ar
     8    96    98   ar
     9    97    99   ar
    10    74    72   ar
    11    74    73   ar
    12    98   100   ar
    13    72    70   ar
    14    73    71   ar
    15    99   100   ar
    16   100   101    1
    17    70    69   ar
    18    71    69   ar
    19    69    68    1
    20    56    57    1
    21    57    58    1
    22    57    60    1
    23    43    42    1
    24    38    39    1
    25    87    88    1
    26    87    84    1
    27    58    59    2
    28    62    61    1
    29    39    42    1
    30    39    40    1
    31    68    65    1
    32    65    64    1
    33    65    66    1
    34    61    60    1
    35    61    63    1
    36    88    89    1
    37    84    85    1
    38    84    83    1
    39    67    66    2
    40    40    41    2
    41    40    44   am
    42    34    32   ar
    43    34    36   ar
    44    66    75   am
    45    85    86    2
    46    32    31   ar
    47    89    83    1
    48    29    28    2
    49    44    45    1
    50    37    36    1
    51    36    35   ar
    52    75    76    1
    53    31    30    1
    54    31    33   ar
    55    30    27    1
    56    28    27    1
    57    27    26    1
    58    45    46    1
    59    45    48    1
    60    35    33   ar
    61     8     7    2
    62    76    77    1
    63    76    79    1
    64    77    78    2
    65    46    47    2
    66    48    49    1
    67     5     6    1
    68     5     3   am
    69    50    49   ar
    70    50    52   ar
    71     1     2    1
    72     7     6    1
    73     7     9   am
    74    25    24    1
    75    79    81    1
    76    79    80    1
    77     2     3    1
    78    49    51   ar
    79    52    54   ar
    80     3     4    2
    81    24    21    1
    82    82    80    1
    83     9    15    1
    84     9    10    1
    85    15    14    1
    86    51    53   ar
    87    54    53   ar
    88    54    55    1
    89    21    22    1
    90    21    20    1
    91    10    11    1
    92    10    13    1
    93    12    11    2
    94    14    13    1
    95    22    23    2
    96    20    18   am
    97    11    16   am
    98    16    17    1
    99    18    19    2
   100    18    17    1
