@<TRIPOS>MOLECULE
tmp/1bcuB01.pdb
 135 135 0 0 0
SMALL
GASTEIGER

@<TRIPOS>ATOM
      1  N         -0.3930   26.9200   52.9640 N.3    43  HIS43      -0.1241
      2  CA        -0.2640   25.5390   53.4100 C.3    43  HIS43       0.1621
      3  C          0.5410   25.4010   54.7010 C.2    43  HIS43       0.2264
      4  O          0.5500   24.3380   55.3100 O.2    43  HIS43      -0.2867
      5  CB         0.3180   24.6430   52.3170 C.3    43  HIS43       0.0745
      6  CG         1.8100   24.6350   52.2650 C.ar   43  HIS43       0.0817
      7  ND1        2.5260   25.4370   51.4050 N.ar   43  HIS43      -0.2268
      8  CD2        2.7270   23.9050   52.9460 C.ar   43  HIS43       0.1154
      9  CE1        3.8170   25.2020   51.5520 C.ar   43  HIS43       0.1986
     10  NE2        3.9650   24.2770   52.4810 N.ar   43  HIS43      -0.2212
     11  N         -3.4320   16.5640   56.2040 N.3    50  TRP50      -0.1241
     12  CA        -2.5530   16.1880   57.3110 C.3    50  TRP50       0.1605
     13  C         -3.0690   16.7350   58.6340 C.2    50  TRP50       0.2264
     14  O         -2.3090   16.8490   59.6000 O.2    50  TRP50      -0.2867
     15  CB        -1.1430   16.7380   57.0910 C.3    50  TRP50       0.0550
     16  CG        -0.4220   16.1790   55.9150 C.ar   50  TRP50       0.0003
     17  CD1       -0.7840   15.0990   55.1580 C.ar   50  TRP50       0.0946
     18  CD2        0.7990   16.6740   55.3510 C.ar   50  TRP50       0.0152
     19  NE1        0.1370   14.8930   54.1560 N.ar   50  TRP50      -0.2442
     20  CE2        1.1180   15.8450   54.2490 C.ar   50  TRP50       0.0810
     21  CE3        1.6540   17.7410   55.6690 C.ar   50  TRP50       0.0012
     22  CZ2        2.2580   16.0510   53.4600 C.ar   50  TRP50       0.0191
     23  CZ3        2.7900   17.9470   54.8840 C.ar   50  TRP50       0.0001
     24  CH2        3.0790   17.1040   53.7920 C.ar   50  TRP50       0.0015
     25  N         17.3170   16.0720   51.8560 N.3   146  GLU146     -0.1245
     26  CA        15.9810   15.4890   51.8510 C.3   146  GLU146      0.1567
     27  C         15.7500   14.4680   52.9760 C.2   146  GLU146      0.2260
     28  O         16.6450   13.6880   53.3300 O.2   146  GLU146     -0.2867
     29  CB        15.6980   14.8580   50.4900 C.3   146  GLU146      0.0388
     30  CG        14.2230   14.6420   50.2290 C.3   146  GLU146      0.1160
     31  CD        13.9410   14.0280   48.8770 C.2   146  GLU146      0.3649
     32  OE1       14.7360   14.2250   47.9250 O.co2 146  GLU146     -0.2457
     33  OE2       12.9010   13.3490   48.7750 O.co2 146  GLU146     -0.2457
     34  N         18.1250   24.0740   46.2480 N.3   191  ASP191     -0.1225
     35  CA        16.6760   23.9940   46.3060 C.3   191  ASP191      0.1805
     36  C         16.2430   24.3010   47.7340 C.2   191  ASP191      0.2598
     37  O         17.0620   24.3130   48.6570 O.2   191  ASP191     -0.2718
     38  CB        16.2130   22.5800   45.9080 C.3   191  ASP191      0.1424
     39  CG        14.6980   22.4740   45.6910 C.2   191  ASP191      0.3668
     40  OD1       14.0180   23.5100   45.5450 O.co2 191  ASP191     -0.2456
     41  OD2       14.1760   21.3370   45.6490 O.co2 191  ASP191     -0.2456
     42  N         14.9710   24.6390   47.8930 N.am  192  ALA192     -0.1966
     43  CA        14.3760   24.7630   49.2050 C.3   192  ALA192      0.1728
     44  C         14.0970   23.3290   49.6500 C.2   192  ALA192      0.2616
     45  O         14.2070   22.3930   48.8550 O.2   192  ALA192     -0.2715
     46  CB        13.0800   25.5420   49.1200 C.3   192  ALA192      0.0334
     47  N         13.7150   23.1580   50.9050 N.am  193  CYS193     -0.1954
     48  CA        13.4230   21.8340   51.4340 C.3   193  CYS193      0.1843
     49  C         12.4680   22.0080   52.6040 C.2   193  CYS193      0.2625
     50  O         11.9990   23.1260   52.8520 O.2   193  CYS193     -0.2714
     51  CB        14.7190   21.1420   51.8720 C.3   193  CYS193      0.0997
     52  SG        14.5900   19.3260   51.9760 S.3   193  CYS193     -0.0797
     53  N         12.1710   20.9260   53.3210 N.am  194  GLU194     -0.1977
     54  CA        11.2210   21.0050   54.4230 C.3   194  GLU194      0.1602
     55  C         11.6610   22.0630   55.4330 C.2   194  GLU194      0.2287
     56  O         12.8390   22.1640   55.7570 O.2   194  GLU194     -0.2864
     57  CB        11.0580   19.6380   55.0950 C.3   194  GLU194      0.0415
     58  CG         9.9780   19.6170   56.1810 C.3   194  GLU194      0.1163
     59  CD         9.5540   18.2120   56.6010 C.2   194  GLU194      0.3649
     60  OE1       10.0230   17.2150   55.9990 O.co2 194  GLU194     -0.2457
     61  OE2        8.7260   18.1080   57.5330 O.co2 194  GLU194     -0.2457
     62  N          9.2530   26.3210   53.4750 N.3   197  SER197     -0.1217
     63  CA         7.9680   26.7710   52.9260 C.3   197  SER197      0.1889
     64  C          7.5590   28.1020   53.5350 C.2   197  SER197      0.2288
     65  O          7.8220   28.3430   54.7130 O.2   197  SER197     -0.2866
     66  CB         6.8470   25.7600   53.2320 C.3   197  SER197      0.2089
     67  OG         7.0710   24.5030   52.6270 O.3   197  SER197     -0.2183
     68  N          8.0080   30.3700   48.7570 N.3   217  VAL217     -0.1231
     69  CA         8.3380   28.9420   48.6710 C.3   217  VAL217      0.1692
     70  C          7.0530   28.1330   48.8950 C.2   217  VAL217      0.2593
     71  O          6.4190   28.2200   49.9560 O.2   217  VAL217     -0.2718
     72  CB         9.4210   28.5440   49.7120 C.3   217  VAL217      0.0266
     73  CG1        9.7420   27.0420   49.6120 C.3   217  VAL217      0.0020
     74  CG2       10.6820   29.3600   49.4920 C.3   217  VAL217      0.0020
     75  N          6.6450   27.3730   47.8860 N.am  218  SER218     -0.1938
     76  CA         5.3670   26.6960   47.9640 C.3   218  SER218      0.2055
     77  C          5.4710   25.1910   48.0560 C.2   218  SER218      0.2643
     78  O          5.0340   24.6120   49.0460 O.2   218  SER218     -0.2714
     79  CB         4.4820   27.0960   46.7830 C.3   218  SER218      0.2130
     80  OG         3.2170   26.4660   46.8540 O.3   218  SER218     -0.2179
     81  N          6.0270   24.5510   47.0310 N.am  219  TRP219     -0.1959
     82  CA         6.1260   23.1010   47.0370 C.3   219  TRP219      0.1771
     83  C          7.1910   22.5730   46.1020 C.2   219  TRP219      0.2620
     84  O          7.7330   23.2950   45.2670 O.2   219  TRP219     -0.2715
     85  CB         4.7640   22.4560   46.7220 C.3   219  TRP219      0.0590
     86  CG         4.2040   22.7710   45.3560 C.ar  219  TRP219      0.0006
     87  CD1        3.4110   23.8340   45.0130 C.ar  219  TRP219      0.0946
     88  CD2        4.3600   21.9890   44.1610 C.ar  219  TRP219      0.0152
     89  NE1        3.0650   23.7620   43.6850 N.ar  219  TRP219     -0.2442
     90  CE2        3.6320   22.6400   43.1380 C.ar  219  TRP219      0.0810
     91  CE3        5.0410   20.7990   43.8570 C.ar  219  TRP219      0.0012
     92  CZ2        3.5650   22.1390   41.8320 C.ar  219  TRP219      0.0191
     93  CZ3        4.9740   20.3020   42.5580 C.ar  219  TRP219      0.0001
     94  CH2        4.2400   20.9730   41.5630 C.ar  219  TRP219      0.0015
     95  N          7.5410   21.3130   46.3020 N.am  220  GLY220     -0.1954
     96  CA         8.5250   20.6600   45.4610 C.3   220  GLY220      0.1869
     97  C          8.3480   19.1690   45.6470 C.2   220  GLY220      0.2309
     98  O          7.5670   18.7320   46.4950 O.2   220  GLY220     -0.2863
     99  N         10.4510   16.2380   46.6490 N.3   222  GLY222     -0.1210
    100  CA        11.7560   15.9480   47.2040 C.3   222  GLY222      0.1956
    101  C         12.5020   17.2630   47.3440 C.2   222  GLY222      0.2612
    102  O         11.8830   18.3350   47.3430 O.2   222  GLY222     -0.2717
    103  N         13.8210   17.1930   47.4640 N.am  223  CYS223     -0.1970
    104  CA        14.6380   18.3950   47.5930 C.3   223  CYS223      0.1712
    105  C         15.8900   18.2160   46.7680 C.2   223  CYS223      0.2296
    106  O         16.6530   17.2600   46.9710 O.2   223  CYS223     -0.2864
    107  CB        15.0500   18.6390   49.0480 C.3   223  CYS223      0.0983
    108  SG        13.6810   18.7890   50.2300 S.3   223  CYS223     -0.0798
    109  N         11.6860   23.5930   42.2230 N.3   230  GLY230     -0.1210
    110  CA        10.9040   24.1620   43.3020 C.3   230  GLY230      0.1956
    111  C          9.8270   25.0380   42.6990 C.2   230  GLY230      0.2612
    112  O         10.0690   25.7030   41.6930 O.2   230  GLY230     -0.2717
    113  N          8.6410   25.0160   43.2830 N.am  231  PHE231     -0.1962
    114  CA         7.5470   25.8430   42.8150 C.3   231  PHE231      0.1771
    115  C          7.2250   26.9270   43.8120 C.2   231  PHE231      0.2619
    116  O          7.1960   26.6910   45.0240 O.2   231  PHE231     -0.2715
    117  CB         6.3200   24.9940   42.5190 C.3   231  PHE231      0.0574
    118  CG         6.4590   24.1880   41.2640 C.ar  231  PHE231     -0.0200
    119  CD1        7.2390   23.0340   41.2430 C.ar  231  PHE231     -0.0042
    120  CD2        5.8770   24.6240   40.0790 C.ar  231  PHE231     -0.0042
    121  CE1        7.4440   22.3270   40.0540 C.ar  231  PHE231     -0.0003
    122  CE2        6.0750   23.9260   38.8890 C.ar  231  PHE231     -0.0003
    123  CZ         6.8620   22.7750   38.8770 C.ar  231  PHE231     -0.0000
    124  N          6.9400   28.1090   43.2840 N.am  232  TYR232     -0.1974
    125  CA         6.7220   29.2910   44.0960 C.3   232  TYR232      0.1639
    126  C          5.4150   29.9540   43.7410 C.2   232  TYR232      0.2290
    127  O          4.9980   29.9420   42.5870 O.2   232  TYR232     -0.2864
    128  CB         7.8630   30.2830   43.8600 C.3   232  TYR232      0.0560
    129  CG         9.2160   29.7180   44.1990 C.ar  232  TYR232     -0.0198
    130  CD1        9.8880   28.8710   43.3130 C.ar  232  TYR232     -0.0009
    131  CD2        9.8070   29.9910   45.4220 C.ar  232  TYR232     -0.0009
    132  CE1       11.0990   28.3050   43.6490 C.ar  232  TYR232      0.0417
    133  CE2       11.0180   29.4330   45.7670 C.ar  232  TYR232      0.0417
    134  CZ        11.6590   28.5940   44.8810 C.ar  232  TYR232      0.1957
    135  OH        12.8490   28.0250   45.2450 O.3   232  TYR232     -0.2866
@<TRIPOS>BOND
     1   123   122   ar
     2   123   121   ar
     3   122   120   ar
     4   121   119   ar
     5   120   118   ar
     6   119   118   ar
     7   118   117    1
     8    94    92   ar
     9    94    93   ar
    10   112   111    2
    11    92    90   ar
    12   109   110    1
    13   117   114    1
    14    93    91   ar
    15   127   126    2
    16   111   113   am
    17   111   110    1
    18   114   113    1
    19   114   115    1
    20    90    89   ar
    21    90    88   ar
    22   124   115   am
    23   124   125    1
    24   130   132   ar
    25   130   129   ar
    26   132   134   ar
    27    89    87   ar
    28   126   125    1
    29   115   116    2
    30    91    88   ar
    31   128   125    1
    32   128   129    1
    33    88    86   ar
    34   129   131   ar
    35   134   135    1
    36   134   133   ar
    37    87    86   ar
    38    84    83    2
    39    86    85    1
    40   131   133   ar
    41    96    97    1
    42    96    95    1
    43    40    39   ar
    44    97    98    2
    45    41    39   ar
    46    39    38    1
    47    38    35    1
    48    83    95   am
    49    83    82    1
    50    34    35    1
    51    35    36    1
    52    99   100    1
    53    85    82    1
    54   105   106    2
    55   105   104    1
    56    79    80    1
    57    79    76    1
    58    81    82    1
    59    81    77   am
    60   100   101    1
    61   102   101    2
    62   101   103   am
    63   103   104    1
    64   104   107    1
    65    36    42   am
    66    36    37    2
    67    75    76    1
    68    75    70   am
    69    42    43    1
    70    32    31   ar
    71    76    77    1
    72    77    78    2
    73    69    68    1
    74    69    70    1
    75    69    72    1
    76    33    31   ar
    77    45    44    2
    78    31    30    1
    79    70    71    2
    80   107   108    1
    81    46    43    1
    82    43    44    1
    83    74    72    1
    84    73    72    1
    85    44    47   am
    86    30    29    1
    87   108    52    1
    88    29    26    1
    89    47    48    1
    90     7     9   ar
    91     7     6   ar
    92    48    51    1
    93    48    49    1
    94     9    10   ar
    95    26    25    1
    96    26    27    1
    97    51    52    1
    98     6     5    1
    99     6     8   ar
   100     5     2    1
   101    10     8   ar
   102    49    50    2
   103    49    53   am
   104    67    66    1
   105    63    66    1
   106    63    62    1
   107    63    64    1
   108     1     2    1
   109    27    28    2
   110    53    54    1
   111     2     3    1
   112    22    24   ar
   113    22    20   ar
   114    64    65    2
   115    24    23   ar
   116    19    20   ar
   117    19    17   ar
   118    20    18   ar
   119    54    57    1
   120    54    55    1
   121     3     4    2
   122    23    21   ar
   123    57    58    1
   124    17    16   ar
   125    18    21   ar
   126    18    16   ar
   127    55    56    2
   128    16    15    1
   129    60    59   ar
   130    58    59    1
   131    11    12    1
   132    59    61   ar
   133    15    12    1
   134    12    13    1
   135    13    14    2
