@<TRIPOS>MOLECULE
tmp/1bd0A00.pdb
 147 138 0 0 0
SMALL
GASTEIGER

@<TRIPOS>ATOM
      1  N         17.0420   11.4800   73.1490 N.3    36  VAL36      -0.1245
      2  CA        18.2570   12.2560   73.3600 C.3    36  VAL36       0.1561
      3  C         17.8920   13.5820   74.0080 C.2    36  VAL36       0.2260
      4  O         17.3370   14.4690   73.3560 O.2    36  VAL36      -0.2867
      5  CB        18.9930   12.5110   72.0070 C.3    36  VAL36       0.0252
      6  CG1       20.3020   13.2350   72.2540 C.3    36  VAL36       0.0019
      7  CG2       19.2530   11.1860   71.2910 C.3    36  VAL36       0.0019
      8  N         20.2140   15.6220   75.8540 N.3    38  LYS38      -0.1245
      9  CA        21.4050   16.3730   76.2410 C.3    38  LYS38       0.1561
     10  C         21.1590   17.8640   76.0380 C.2    38  LYS38       0.2260
     11  O         20.2040   18.2510   75.3630 O.2    38  LYS38      -0.2867
     12  CB        22.6100   15.9310   75.4100 C.3    38  LYS38       0.0271
     13  CG        22.4470   16.0860   73.8980 C.3    38  LYS38       0.0035
     14  CD        23.2040   14.9670   73.1730 C.3    38  LYS38       0.0206
     15  CE        23.4500   15.2700   71.6910 C.3    38  LYS38       0.1093
     16  NZ        24.2000   16.5290   71.4840 N.3    38  LYS38      -0.1314
     17  N         17.9660   19.9270   74.3750 N.3    42  TYR42      -0.1241
     18  CA        18.1790   20.9060   73.3100 C.3    42  TYR42       0.1605
     19  C         17.5110   22.2320   73.6660 C.2    42  TYR42       0.2264
     20  O         16.8730   22.8550   72.8220 O.2    42  TYR42      -0.2867
     21  CB        17.6290   20.4070   71.9620 C.3    42  TYR42       0.0534
     22  CG        18.3510   19.2190   71.3390 C.ar   42  TYR42      -0.0201
     23  CD1       19.0680   18.3120   72.1230 C.ar   42  TYR42      -0.0009
     24  CD2       18.2490   18.9620   69.9720 C.ar   42  TYR42      -0.0009
     25  CE1       19.6520   17.1790   71.5620 C.ar   42  TYR42       0.0417
     26  CE2       18.8300   17.8310   69.4030 C.ar   42  TYR42       0.0417
     27  CZ        19.5230   16.9450   70.2010 C.ar   42  TYR42       0.1957
     28  OH        20.0660   15.8120   69.6470 O.3    42  TYR42      -0.2866
     29  N         26.6440    9.8370   76.1390 N.3    84  LEU84      -0.1245
     30  CA        27.1590    9.6540   74.7820 C.3    84  LEU84       0.1561
     31  C         28.6310   10.0450   74.5990 C.2    84  LEU84       0.2260
     32  O         29.3180    9.5140   73.7230 O.2    84  LEU84      -0.2867
     33  CB        26.2830   10.4380   73.7920 C.3    84  LEU84       0.0270
     34  CG        24.8050   10.0360   73.7080 C.3    84  LEU84       0.0019
     35  CD1       24.0500   11.0800   72.9110 C.3    84  LEU84       0.0001
     36  CD2       24.6600    8.6600   73.0730 C.3    84  LEU84       0.0001
     37  N         31.6650    2.5600   71.4560 N.3   128  LYS128     -0.1245
     38  CA        31.4490    3.4230   70.3150 C.3   128  LYS128      0.1561
     39  C         32.4160    3.0430   69.1980 C.2   128  LYS128      0.2260
     40  O         33.6050    2.8420   69.4400 O.2   128  LYS128     -0.2867
     41  CB        31.6610    4.8810   70.7280 C.3   128  LYS128      0.0271
     42  CG        31.6980    5.8710   69.5700 C.3   128  LYS128      0.0035
     43  CD        30.3000    6.3790   69.1560 C.3   128  LYS128      0.0206
     44  CE        30.3490    7.2010   67.8350 C.3   128  LYS128      0.1093
     45  NZ        30.5670    8.6950   67.9370 N.3   128  LYS128     -0.1314
     46  N         32.4900    9.4790   61.1400 N.3   133  MET133     -0.1245
     47  CA        32.1650   10.7930   61.6950 C.3   133  MET133      0.1570
     48  C         33.4610   11.4840   62.1770 C.2   133  MET133      0.2261
     49  O         33.5500   12.7150   62.2080 O.2   133  MET133     -0.2867
     50  CB        31.1480   10.6390   62.8410 C.3   133  MET133      0.0387
     51  CG        30.8430   11.9180   63.6090 C.3   133  MET133      0.0595
     52  SD        29.7430   13.0830   62.7760 S.3   133  MET133     -0.1393
     53  CE        29.6560   14.4080   63.9840 C.3   133  MET133      0.0692
     54  N         34.8170   11.5650   65.1960 N.3   135  ARG135     -0.1245
     55  CA        34.7120   12.1850   66.5170 C.3   135  ARG135      0.1563
     56  C         35.2440   11.2600   67.6120 C.2   135  ARG135      0.2260
     57  O         36.3870   11.3950   68.0540 O.2   135  ARG135     -0.2867
     58  CB        33.2450   12.5410   66.7820 C.3   135  ARG135      0.0307
     59  CG        32.9980   13.4520   67.9720 C.3   135  ARG135      0.0489
     60  CD        31.5760   14.0090   67.9420 C.3   135  ARG135      0.2205
     61  NE        30.5560   12.9580   67.9100 N.pl3 135  ARG135     -0.0865
     62  CZ        29.2460   13.1920   67.9400 C.cat 135  ARG135      0.5346
     63  NH1       28.8000   14.4370   68.0050 N.pl3 135  ARG135      0.1354
     64  NH2       28.3800   12.1860   67.8980 N.pl3 135  ARG135      0.1354
     65  N         27.7310    0.9180   69.4040 N.3   163  TYR163     -0.1241
     66  CA        27.1290    1.7630   68.3900 C.3   163  TYR163      0.1605
     67  C         28.0750    2.6440   67.5900 C.2   163  TYR163      0.2264
     68  O         29.2790    2.7010   67.8390 O.2   163  TYR163     -0.2867
     69  CB        26.0900    2.6640   69.0570 C.3   163  TYR163      0.0534
     70  CG        26.6760    3.7610   69.9310 C.ar  163  TYR163     -0.0201
     71  CD1       27.2810    3.4650   71.1580 C.ar  163  TYR163     -0.0009
     72  CD2       26.5590    5.0980   69.5650 C.ar  163  TYR163     -0.0009
     73  CE1       27.7420    4.4770   71.9970 C.ar  163  TYR163      0.0417
     74  CE2       27.0130    6.1140   70.3910 C.ar  163  TYR163      0.0417
     75  CZ        27.6000    5.7990   71.6080 C.ar  163  TYR163      0.1957
     76  OH        28.0130    6.8280   72.4230 O.3   163  TYR163     -0.2866
     77  N         27.7250    6.4510   64.8280 N.3   165  HIS165     -0.1241
     78  CA        26.9080    7.6190   64.5530 C.3   165  HIS165      0.1621
     79  C         27.1930    8.1320   63.1500 C.2   165  HIS165      0.2264
     80  O         28.3400    8.1130   62.7090 O.2   165  HIS165     -0.2867
     81  CB        27.2230    8.6980   65.5840 C.3   165  HIS165      0.0745
     82  CG        26.3570    9.9110   65.4750 C.ar  165  HIS165      0.0817
     83  ND1       25.0030    9.8830   65.7180 N.ar  165  HIS165     -0.2268
     84  CD2       26.6610   11.1940   65.1640 C.ar  165  HIS165      0.1154
     85  CE1       24.5070   11.0950   65.5590 C.ar  165  HIS165      0.1986
     86  NE2       25.4900   11.9110   65.2240 N.ar  165  HIS165     -0.2212
     87  N         20.0260    8.0400   64.1480 N.3   202  ASN202     -0.1225
     88  CA        19.6380    9.2750   64.8170 C.3   202  ASN202      0.1785
     89  C         18.2350    9.6020   64.2440 C.2   202  ASN202      0.2598
     90  O         17.5690    8.7040   63.7270 O.2   202  ASN202     -0.2718
     91  CB        20.6500   10.4060   64.5310 C.3   202  ASN202      0.1169
     92  CG        20.9600   10.5870   63.0400 C.2   202  ASN202      0.2627
     93  OD1       20.4270    9.8840   62.1780 O.2   202  ASN202     -0.2716
     94  ND2       21.8350   11.5420   62.7390 N.am  202  ASN202     -0.0877
     95  N         17.7820   10.8500   64.3280 N.am  203  SER203     -0.1938
     96  CA        16.4570   11.2030   63.8060 C.3   203  SER203      0.2055
     97  C         16.3240   10.9270   62.3060 C.2   203  SER203      0.2642
     98  O         15.4140   10.2200   61.8740 O.2   203  SER203     -0.2714
     99  CB        16.1410   12.6800   64.0670 C.3   203  SER203      0.2130
    100  OG        15.8150   12.9160   65.4280 O.3   203  SER203     -0.2179
    101  N         17.2350   11.4830   61.5140 N.am  204  ALA204     -0.1977
    102  CA        17.1960   11.2990   60.0660 C.3   204  ALA204      0.1597
    103  C         17.2700    9.8390   59.6040 C.2   204  ALA204      0.2287
    104  O         16.4910    9.4260   58.7430 O.2   204  ALA204     -0.2864
    105  CB        18.3090   12.1180   59.4100 C.3   204  ALA204      0.0319
    106  N         18.3990    6.4610   68.5660 N.3   218  ARG218     -0.1245
    107  CA        18.6690    7.5810   69.4610 C.3   218  ARG218      0.1563
    108  C         18.0110    8.8090   68.8170 C.2   218  ARG218      0.2260
    109  O         18.5940    9.4800   67.9590 O.2   218  ARG218     -0.2867
    110  CB        20.1860    7.7590   69.6340 C.3   218  ARG218      0.0307
    111  CG        20.9090    6.5110   70.1790 C.3   218  ARG218      0.0489
    112  CD        22.4460    6.6950   70.3210 C.3   218  ARG218      0.2205
    113  NE        23.0900    7.2620   69.1290 N.pl3 218  ARG218     -0.0865
    114  CZ        23.5070    6.5570   68.0760 C.cat 218  ARG218      0.5346
    115  NH1       23.3540    5.2420   68.0430 N.pl3 218  ARG218      0.1354
    116  NH2       24.0670    7.1710   67.0450 N.pl3 218  ARG218      0.1354
    117  N         16.6050   12.4640   68.5880 N.3   220  GLY220     -0.1210
    118  CA        16.8360   13.8010   69.0960 C.3   220  GLY220      0.1956
    119  C         16.0400   14.9270   68.4560 C.2   220  GLY220      0.2611
    120  O         14.8830   15.1560   68.8090 O.2   220  GLY220     -0.2717
    121  N         16.6660   15.6330   67.5140 N.am  221  ILE221     -0.1979
    122  CA        16.0580   16.7780   66.8280 C.3   221  ILE221      0.1595
    123  C         14.5800   16.6400   66.4230 C.2   221  ILE221      0.2287
    124  O         13.7960   17.5580   66.6540 O.2   221  ILE221     -0.2864
    125  CB        16.9110   17.1890   65.5700 C.3   221  ILE221      0.0276
    126  CG1       16.5520   18.6080   65.1240 C.3   221  ILE221      0.0022
    127  CG2       16.7190   16.1850   64.4360 C.3   221  ILE221      0.0022
    128  CD1       16.7940   19.6740   66.1760 C.3   221  ILE221      0.0001
    129  N         15.6850   17.3210   60.6890 N.3   228  PRO228     -0.2116
    130  CA        17.1350   17.0970   60.7530 C.3   228  PRO228      0.1372
    131  C         17.8590   17.9970   59.7560 C.2   228  PRO228      0.2244
    132  O         18.9870   18.4310   59.9940 O.2   228  PRO228     -0.2868
    133  CB        17.2800   15.6160   60.4190 C.3   228  PRO228      0.0268
    134  CG        15.9960   15.0160   60.8940 C.3   228  PRO228      0.0207
    135  CD        14.9480   16.0480   60.5890 C.3   228  PRO228      0.0892
    136  N         19.3570   23.1910   65.2110 N.3   353  TYR353     -0.1241
    137  CA        19.8620   22.6350   66.4680 C.3   353  TYR353      0.1605
    138  C         20.4410   23.6910   67.4000 C.2   353  TYR353      0.2264
    139  O         20.1940   23.6760   68.6020 O.2   353  TYR353     -0.2867
    140  CB        20.9810   21.6260   66.2120 C.3   353  TYR353      0.0534
    141  CG        20.6090   20.3360   65.5290 C.ar  353  TYR353     -0.0201
    142  CD1       20.5470   20.2580   64.1380 C.ar  353  TYR353     -0.0009
    143  CD2       20.4410   19.1660   66.2610 C.ar  353  TYR353     -0.0009
    144  CE1       20.3410   19.0460   63.4970 C.ar  353  TYR353      0.0417
    145  CE2       20.2340   17.9460   65.6330 C.ar  353  TYR353      0.0417
    146  CZ        20.1890   17.8930   64.2450 C.ar  353  TYR353      0.1957
    147  OH        20.0100   16.6920   63.6020 O.3   353  TYR353     -0.2866
@<TRIPOS>BOND
     1   104   103    2
     2   105   102    1
     3   103   102    1
     4   131   132    2
     5   131   130    1
     6   102   101    1
     7   133   130    1
     8   133   134    1
     9   135   129    1
    10   135   134    1
    11   129   130    1
    12    46    47    1
    13   101    97   am
    14    47    48    1
    15    47    50    1
    16    98    97    2
    17    48    49    2
    18    93    92    2
    19    97    96    1
    20    80    79    2
    21    94    92   am
    22    52    51    1
    23    52    53    1
    24    50    51    1
    25    92    91    1
    26    79    78    1
    27   144   142   ar
    28   144   146   ar
    29   147   146    1
    30    90    89    2
    31    96    99    1
    32    96    95    1
    33    99   100    1
    34   142   141   ar
    35    87    88    1
    36    89    95   am
    37    89    88    1
    38   146   145   ar
    39   127   125    1
    40    91    88    1
    41    78    77    1
    42    78    81    1
    43   126   125    1
    44   126   128    1
    45    84    86   ar
    46    84    82   ar
    47    54    55    1
    48   136   137    1
    49    86    85   ar
    50    82    81    1
    51    82    83   ar
    52   141   140    1
    53   141   143   ar
    54    85    83   ar
    55   125   122    1
    56   145   143   ar
    57   140   137    1
    58   123   124    2
    59   123   122    1
    60   137   138    1
    61    55    58    1
    62    55    56    1
    63    58    59    1
    64   122   121    1
    65   116   114    1
    66   138   139    2
    67   121   119   am
    68    67    68    2
    69    67    66    1
    70    56    57    2
    71    44    45    1
    72    44    43    1
    73    64    62    1
    74    61    62    2
    75    61    60    1
    76    62    63    1
    77    60    59    1
    78   109   108    2
    79   115   114    1
    80   114   113    2
    81    66    69    1
    82    66    65    1
    83   119   120    2
    84   119   118    1
    85   106   107    1
    86   117   118    1
    87   108   107    1
    88    69    70    1
    89   113   112    1
    90    43    42    1
    91    39    40    2
    92    39    38    1
    93    26    24   ar
    94    26    27   ar
    95   107   110    1
    96    72    70   ar
    97    72    74   ar
    98    42    41    1
    99   110   111    1
   100    28    27    1
   101    70    71   ar
   102    24    22   ar
   103   111   112    1
   104    27    25   ar
   105    38    41    1
   106    38    37    1
   107    74    75   ar
   108    71    73   ar
   109     7     5    1
   110    22    21    1
   111    22    23   ar
   112    16    15    1
   113    25    23   ar
   114    75    73   ar
   115    75    76    1
   116    15    14    1
   117    21    18    1
   118     5     6    1
   119     5     2    1
   120    20    19    2
   121    35    34    1
   122    36    34    1
   123     1     2    1
   124    14    13    1
   125    18    19    1
   126    18    17    1
   127     4     3    2
   128     2     3    1
   129    34    33    1
   130    32    31    2
   131    33    30    1
   132    13    12    1
   133    31    30    1
   134    30    29    1
   135    11    10    2
   136    12     9    1
   137     8     9    1
   138    10     9    1
