@<TRIPOS>MOLECULE
tmp/1bd4C00.pdb
 85 83 0 0 0
SMALL
GASTEIGER

@<TRIPOS>ATOM
      1  N          5.4600   75.1250   88.8730 N.3    93  ALA93      -0.1245
      2  CA         5.8640   74.3160   87.7220 C.3    93  ALA93       0.1562
      3  C          4.7810   73.8020   86.7610 C.2    93  ALA93       0.2260
      4  O          4.9780   73.7590   85.5480 O.2    93  ALA93      -0.2867
      5  CB         6.7190   73.1640   88.1920 C.3    93  ALA93       0.0290
      6  N          7.5320   67.3300   87.0080 N.3   146  MET146     -0.1245
      7  CA         8.4940   66.4530   87.6480 C.3   146  MET146      0.1570
      8  C          7.7660   65.6620   88.7050 C.2   146  MET146      0.2261
      9  O          6.8700   66.1700   89.3620 O.2   146  MET146     -0.2867
     10  CB         9.5900   67.2190   88.3640 C.3   146  MET146      0.0387
     11  CG        10.1660   68.3890   87.6250 C.3   146  MET146      0.0595
     12  SD        11.5680   67.6690   86.8130 S.3   146  MET146     -0.1393
     13  CE        10.6780   67.2810   85.3020 C.3   146  MET146      0.0692
     14  N          9.2970   63.4840   91.5640 N.3   148  ALA148     -0.1245
     15  CA        10.4090   62.8870   92.2920 C.3   148  ALA148      0.1562
     16  C          9.9540   62.0220   93.4860 C.2   148  ALA148      0.2260
     17  O          9.8480   60.8060   93.3610 O.2   148  ALA148     -0.2867
     18  CB        11.3830   63.9770   92.7190 C.3   148  ALA148      0.0290
     19  N         16.9670   65.3380   96.7090 N.3   207  TYR207     -0.1227
     20  CA        15.7040   64.9820   96.0930 C.3   207  TYR207      0.1736
     21  C         15.4760   65.3100   94.6290 C.2   207  TYR207      0.2595
     22  O         14.3400   65.3870   94.1450 O.2   207  TYR207     -0.2718
     23  CB        14.5760   65.4610   96.9970 C.3   207  TYR207      0.0548
     24  CG        14.8360   65.0360   98.4220 C.ar  207  TYR207     -0.0200
     25  CD1       14.4480   63.7740   98.8790 C.ar  207  TYR207     -0.0009
     26  CD2       15.5200   65.8710   99.3090 C.ar  207  TYR207     -0.0009
     27  CE1       14.7090   63.3700  100.1830 C.ar  207  TYR207      0.0417
     28  CE2       15.7800   65.4760  100.6170 C.ar  207  TYR207      0.0417
     29  CZ        15.3750   64.2320  101.0490 C.ar  207  TYR207      0.1957
     30  OH        15.6520   63.8800  102.3480 O.3   207  TYR207     -0.2866
     31  N         16.5800   65.4470   93.9180 N.am  208  TYR208     -0.1962
     32  CA        16.5090   65.7170   92.4970 C.3   208  TYR208      0.1771
     33  C         16.6470   64.4370   91.6770 C.2   208  TYR208      0.2619
     34  O         17.4910   63.5820   91.9540 O.2   208  TYR208     -0.2715
     35  CB        17.5920   66.7260   92.0800 C.3   208  TYR208      0.0574
     36  CG        17.1480   68.1390   92.3530 C.ar  208  TYR208     -0.0198
     37  CD1       16.0220   68.6580   91.7160 C.ar  208  TYR208     -0.0009
     38  CD2       17.7900   68.9200   93.3000 C.ar  208  TYR208     -0.0009
     39  CE1       15.5670   69.9340   91.9820 C.ar  208  TYR208      0.0417
     40  CE2       17.3520   70.2020   93.5700 C.ar  208  TYR208      0.0417
     41  CZ        16.2360   70.7090   92.9050 C.ar  208  TYR208      0.1957
     42  OH        15.7640   71.9830   93.1600 O.3   208  TYR208     -0.2866
     43  N         15.8380   64.3290   90.6370 N.am  209  ILE209     -0.1977
     44  CA        15.9000   63.1810   89.7500 C.3   209  ILE209      0.1596
     45  C         17.1830   63.2270   88.9170 C.2   209  ILE209      0.2287
     46  O         17.5720   64.3040   88.4440 O.2   209  ILE209     -0.2864
     47  CB        14.7480   63.2850   88.7780 C.3   209  ILE209      0.0276
     48  CG1       13.4290   63.2240   89.5300 C.3   209  ILE209      0.0022
     49  CG2       14.8550   62.2330   87.7000 C.3   209  ILE209      0.0022
     50  CD1       12.2340   63.6650   88.7080 C.3   209  ILE209      0.0001
     51  N         16.4330   66.8770   84.9720 N.3   213  ILE213     -0.1231
     52  CA        16.4700   68.1760   84.2710 C.3   213  ILE213      0.1692
     53  C         16.9120   69.3460   85.1510 C.2   213  ILE213      0.2593
     54  O         17.2490   70.4000   84.6370 O.2   213  ILE213     -0.2718
     55  CB        15.1950   68.5430   83.3720 C.3   213  ILE213      0.0266
     56  CG1       14.5100   69.8220   83.8490 C.3   213  ILE213      0.0019
     57  CG2       14.2190   67.3920   83.1720 C.3   213  ILE213      0.0020
     58  CD1       13.5130   69.6180   84.9750 C.3   213  ILE213      0.0001
     59  N         16.9140   69.1470   86.4680 N.am  214  GLY214     -0.1942
     60  CA        17.2910   70.1750   87.4350 C.3   214  GLY214      0.2014
     61  C         15.9700   70.6950   87.9360 C.2   214  GLY214      0.2639
     62  O         14.9950   69.9550   87.9420 O.2   214  GLY214     -0.2714
     63  N         15.9080   71.9610   88.3330 N.am  215  ASP215     -0.1957
     64  CA        14.6320   72.4910   88.8160 C.3   215  ASP215      0.1840
     65  C         13.8420   72.9290   87.5840 C.2   215  ASP215      0.2622
     66  O         14.2370   73.8510   86.8730 O.2   215  ASP215     -0.2715
     67  CB        14.8500   73.6100   89.8560 C.3   215  ASP215      0.1450
     68  CG        13.6010   73.9330   90.6530 C.2   215  ASP215      0.3671
     69  OD1       12.6160   74.5190   90.1090 O.co2 215  ASP215     -0.2456
     70  OD2       13.6000   73.5480   91.8440 O.co2 215  ASP215     -0.2456
     71  N         12.7140   72.3070   87.3290 N.am  216  PHE216     -0.1960
     72  CA        11.9490   72.6770   86.1800 C.3   216  PHE216      0.1771
     73  C         11.3990   74.0950   86.2750 C.2   216  PHE216      0.2620
     74  O         11.6210   74.8900   85.3470 O.2   216  PHE216     -0.2715
     75  CB        10.8250   71.6680   85.9590 C.3   216  PHE216      0.0574
     76  CG        10.2060   71.7750   84.6050 C.ar  216  PHE216     -0.0200
     77  CD1       10.7810   71.1020   83.5330 C.ar  216  PHE216     -0.0042
     78  CD2        9.1110   72.6010   84.3770 C.ar  216  PHE216     -0.0042
     79  CE1       10.2340   71.1940   82.2630 C.ar  216  PHE216     -0.0003
     80  CE2        8.5710   72.7170   83.1080 C.ar  216  PHE216     -0.0003
     81  CZ         9.1350   72.0060   82.0470 C.ar  216  PHE216     -0.0000
     82  N         10.6650   74.3850   87.3620 N.am  217  GLY217     -0.1954
     83  CA        10.0090   75.6850   87.5970 C.3   217  GLY217      0.1869
     84  C         10.8970   76.8790   87.2850 C.2   217  GLY217      0.2309
     85  O         10.5900   77.7390   86.4680 O.2   217  GLY217     -0.2863
@<TRIPOS>BOND
     1    81    79   ar
     2    81    80   ar
     3    79    77   ar
     4    80    78   ar
     5    57    55    1
     6    55    56    1
     7    55    52    1
     8    77    76   ar
     9    56    58    1
    10    52    51    1
    11    52    53    1
    12    78    76   ar
    13    76    75    1
    14    54    53    2
    15    53    59   am
    16    13    12    1
    17    74    73    2
    18     4     3    2
    19    75    72    1
    20    72    73    1
    21    72    71    1
    22    73    82   am
    23    59    60    1
    24    85    84    2
    25     3     2    1
    26    12    11    1
    27    66    65    2
    28     6     7    1
    29    84    83    1
    30    71    65   am
    31    82    83    1
    32    60    61    1
    33    65    64    1
    34    11    10    1
    35     7    10    1
    36     7     8    1
    37    49    47    1
    38     2     5    1
    39     2     1    1
    40    61    62    2
    41    61    63   am
    42    63    64    1
    43    46    45    2
    44     8     9    2
    45    50    48    1
    46    47    48    1
    47    47    44    1
    48    64    67    1
    49    45    44    1
    50    44    43    1
    51    67    68    1
    52    69    68   ar
    53    43    33   am
    54    68    70   ar
    55    14    15    1
    56    33    34    2
    57    33    32    1
    58    37    39   ar
    59    37    36   ar
    60    39    41   ar
    61    35    36    1
    62    35    32    1
    63    15    18    1
    64    15    16    1
    65    36    38   ar
    66    32    31    1
    67    41    42    1
    68    41    40   ar
    69    38    40   ar
    70    17    16    2
    71    31    21   am
    72    22    21    2
    73    21    20    1
    74    20    19    1
    75    20    23    1
    76    23    24    1
    77    24    25   ar
    78    24    26   ar
    79    25    27   ar
    80    26    28   ar
    81    27    29   ar
    82    28    29   ar
    83    29    30    1
