@<TRIPOS>MOLECULE
tmp/1bdaB00.pdb
 178 175 0 0 0
SMALL
GASTEIGER

@<TRIPOS>ATOM
      1  N         15.2140   45.4170   17.6420 N.3    44  LEU44      -0.1231
      2  CA        15.4540   46.6430   18.3890 C.3    44  LEU44       0.1693
      3  C         14.2030   47.2560   18.9900 C.2    44  LEU44       0.2592
      4  O         14.0930   47.3910   20.1980 O.2    44  LEU44      -0.2718
      5  CB        16.1800   47.6830   17.5080 C.3    44  LEU44       0.0284
      6  CG        16.8850   48.8410   18.2470 C.3    44  LEU44       0.0019
      7  CD1       18.1330   48.3070   18.9660 C.3    44  LEU44       0.0001
      8  CD2       17.2470   49.9860   17.2840 C.3    44  LEU44       0.0001
      9  N         13.2440   47.5910   18.1450 N.am   45  CYS45      -0.1970
     10  CA        12.0360   48.2340   18.6260 C.3    45  CYS45       0.1712
     11  C         10.8480   48.0640   17.7170 C.2    45  CYS45       0.2296
     12  O         10.9330   47.4380   16.6590 O.2    45  CYS45      -0.2864
     13  CB        12.2940   49.7170   18.7780 C.3    45  CYS45       0.0983
     14  SG        13.5650   50.0700   20.0100 S.3    45  CYS45      -0.0798
     15  N         14.3020   56.9350   22.5090 N.3    60  HIS60      -0.1226
     16  CA        15.2830   56.2220   23.3120 C.3    60  HIS60       0.1752
     17  C         15.7260   54.9740   22.5920 C.2    60  HIS60       0.2596
     18  O         16.8020   54.4550   22.8570 O.2    60  HIS60      -0.2718
     19  CB        14.7550   55.9080   24.7240 C.3    60  HIS60       0.0759
     20  CG        13.8130   54.7470   24.7980 C.ar   60  HIS60       0.0818
     21  ND1       12.4810   54.8060   24.4580 N.ar   60  HIS60      -0.2268
     22  CD2       14.0150   53.4850   25.2560 C.ar   60  HIS60       0.1154
     23  CE1       11.9300   53.6090   24.7210 C.ar   60  HIS60       0.1986
     24  NE2       12.8210   52.7670   25.2100 N.ar   60  HIS60      -0.2212
     25  N         14.9340   54.5660   21.6070 N.am   61  CYS61      -0.1970
     26  CA        15.2260   53.3910   20.8150 C.3    61  CYS61       0.1712
     27  C         16.4430   53.5420   19.9200 C.2    61  CYS61       0.2296
     28  O         16.9840   52.5460   19.4290 O.2    61  CYS61      -0.2864
     29  CB        14.0140   53.0200   19.9760 C.3    61  CYS61       0.0983
     30  SG        12.9400   51.8280   20.8130 S.3    61  CYS61      -0.0798
     31  N         13.1470   60.4950   29.5760 N.3   106  TYR106     -0.1241
     32  CA        12.3260   60.0290   28.4810 C.3   106  TYR106      0.1605
     33  C         11.2400   61.0510   28.1190 C.2   106  TYR106      0.2264
     34  O         10.1070   60.7220   27.7420 O.2   106  TYR106     -0.2867
     35  CB        11.7540   58.6600   28.8360 C.3   106  TYR106      0.0534
     36  CG        12.8230   57.6190   29.0260 C.ar  106  TYR106     -0.0201
     37  CD1       13.4790   57.0680   27.9300 C.ar  106  TYR106     -0.0009
     38  CD2       13.1770   57.1750   30.2900 C.ar  106  TYR106     -0.0009
     39  CE1       14.4600   56.0960   28.0890 C.ar  106  TYR106      0.0417
     40  CE2       14.1570   56.1990   30.4610 C.ar  106  TYR106      0.0417
     41  CZ        14.7890   55.6690   29.3540 C.ar  106  TYR106      0.1957
     42  OH        15.7350   54.6900   29.4850 O.3   106  TYR106     -0.2866
     43  N         10.0630   41.3920   32.3500 N.3   157  ALA157     -0.1245
     44  CA        11.2370   42.2270   32.4770 C.3   157  ALA157      0.1562
     45  C         12.5420   41.5090   32.7580 C.2   157  ALA157      0.2260
     46  O         13.6070   42.0130   32.4260 O.2   157  ALA157     -0.2867
     47  CB        10.9910   43.2650   33.5300 C.3   157  ALA157      0.0290
     48  N          7.4060   55.9030   41.4780 N.3   185  LEU185     -0.1245
     49  CA         8.7030   55.9330   42.1380 C.3   185  LEU185      0.1561
     50  C          9.5160   57.2310   42.1610 C.2   185  LEU185      0.2260
     51  O         10.7350   57.1970   41.9500 O.2   185  LEU185     -0.2867
     52  CB         9.5950   54.8270   41.5800 C.3   185  LEU185      0.0270
     53  CG         9.4900   53.4900   42.2970 C.3   185  LEU185      0.0019
     54  CD1       10.6400   52.6310   41.8110 C.3   185  LEU185      0.0001
     55  CD2        9.5490   53.6790   43.8280 C.3   185  LEU185      0.0001
     56  N         10.0310   59.3580   40.1190 N.3   187  ARG187     -0.1245
     57  CA        10.6890   59.6770   38.8420 C.3   187  ARG187      0.1563
     58  C         10.1210   60.9920   38.3290 C.2   187  ARG187      0.2260
     59  O          9.6710   61.8240   39.1150 O.2   187  ARG187     -0.2867
     60  CB        10.4490   58.5780   37.7880 C.3   187  ARG187      0.0307
     61  CG        10.4870   57.1190   38.2640 C.3   187  ARG187      0.0489
     62  CD        11.7460   56.7030   39.0420 C.3   187  ARG187      0.2205
     63  NE        13.0110   57.0110   38.3740 N.pl3 187  ARG187     -0.0865
     64  CZ        13.3150   56.7220   37.1100 C.cat 187  ARG187      0.5346
     65  NH1       12.4450   56.0980   36.3160 N.pl3 187  ARG187      0.1354
     66  NH2       14.5060   57.0750   36.6340 N.pl3 187  ARG187      0.1354
     67  N          0.5070   45.0050   29.8460 N.3   210  ASP210     -0.1225
     68  CA         1.3920   46.1760   29.8380 C.3   210  ASP210      0.1805
     69  C          2.5060   45.9180   28.8380 C.2   210  ASP210      0.2598
     70  O          2.8130   44.7800   28.5180 O.2   210  ASP210     -0.2718
     71  CB         2.0120   46.3760   31.2380 C.3   210  ASP210      0.1424
     72  CG         2.9730   47.5820   31.3230 C.2   210  ASP210      0.3668
     73  OD1        2.9380   48.4730   30.4400 O.co2 210  ASP210     -0.2456
     74  OD2        3.7540   47.6460   32.3090 O.co2 210  ASP210     -0.2456
     75  N          3.0690   46.9740   28.2850 N.am  211  ALA211     -0.1966
     76  CA         4.1780   46.8040   27.3680 C.3   211  ALA211      0.1728
     77  C          5.3980   46.5590   28.2460 C.2   211  ALA211      0.2616
     78  O          5.3600   46.8180   29.4510 O.2   211  ALA211     -0.2715
     79  CB         4.3670   48.0410   26.5480 C.3   211  ALA211      0.0334
     80  N          6.5050   46.1800   27.6250 N.am  212  CYS212     -0.1954
     81  CA         7.7320   45.8750   28.3460 C.3   212  CYS212      0.1843
     82  C          8.9000   46.0140   27.3620 C.2   212  CYS212      0.2625
     83  O          8.6780   46.2430   26.1650 O.2   212  CYS212     -0.2714
     84  CB         7.6420   44.4550   28.9090 C.3   212  CYS212      0.0997
     85  SG         8.9850   43.9710   30.0260 S.3   212  CYS212     -0.0797
     86  N         10.1270   45.8740   27.8650 N.am  213  GLN213     -0.1963
     87  CA        11.3410   46.0200   27.0540 C.3   213  GLN213      0.1733
     88  C         11.2440   45.3100   25.7070 C.2   213  GLN213      0.2616
     89  O         11.1030   44.0910   25.6320 O.2   213  GLN213     -0.2715
     90  CB        12.5950   45.5740   27.8280 C.3   213  GLN213      0.0408
     91  CG        13.1160   46.5630   28.8830 C.3   213  GLN213      0.0908
     92  CD        12.2700   46.6200   30.1600 C.2   213  GLN213      0.2608
     93  OE1       11.0450   46.5470   30.1090 O.2   213  GLN213     -0.2717
     94  NE2       12.9290   46.7540   31.3130 N.am  213  GLN213     -0.0878
     95  N         11.2920   46.1030   24.6480 N.am  214  GLY214     -0.1955
     96  CA        11.1700   45.5700   23.3070 C.3   214  GLY214      0.1869
     97  C          9.8950   46.1320   22.6840 C.2   214  GLY214      0.2309
     98  O          9.7620   46.2320   21.4610 O.2   214  GLY214     -0.2863
     99  N          8.8790   49.1660   23.1120 N.3   216  SER216     -0.1217
    100  CA         9.0630   50.5770   22.8660 C.3   216  SER216      0.1889
    101  C          8.9340   50.9150   21.3980 C.2   216  SER216      0.2288
    102  O          9.2280   50.0960   20.5320 O.2   216  SER216     -0.2866
    103  CB        10.4320   51.0130   23.3710 C.3   216  SER216      0.2089
    104  OG        10.4530   51.0640   24.7890 O.3   216  SER216     -0.2183
    105  N          4.7830   53.8690   23.0260 N.3   234  ILE234     -0.1231
    106  CA         5.3050   53.0970   24.1470 C.3   234  ILE234      0.1692
    107  C          6.7000   53.5990   24.5150 C.2   234  ILE234      0.2593
    108  O          7.6710   53.3300   23.7960 O.2   234  ILE234     -0.2718
    109  CB         5.2960   51.6020   23.7970 C.3   234  ILE234      0.0266
    110  CG1        3.8470   51.1610   23.5840 C.3   234  ILE234      0.0019
    111  CG2        5.9520   50.8040   24.8740 C.3   234  ILE234      0.0020
    112  CD1        3.6730   49.7080   23.3690 C.3   234  ILE234      0.0001
    113  N          6.7830   54.3220   25.6370 N.am  235  SER235     -0.1938
    114  CA         8.0290   54.9350   26.0970 C.3   235  SER235      0.2055
    115  C          8.7810   54.3080   27.2630 C.2   235  SER235      0.2643
    116  O          9.9520   53.9650   27.1170 O.2   235  SER235     -0.2714
    117  CB         7.7970   56.4130   26.3990 C.3   235  SER235      0.2130
    118  OG         8.9820   57.0160   26.8680 O.3   235  SER235     -0.2179
    119  N          8.1570   54.2030   28.4310 N.am  236  TRP236     -0.1959
    120  CA         8.8740   53.6290   29.5670 C.3   236  TRP236      0.1775
    121  C          8.0190   53.2000   30.7810 C.2   236  TRP236      0.2659
    122  O          6.7910   53.3270   30.7630 O.2   236  TRP236     -0.2711
    123  CB         9.9210   54.6370   30.0070 C.3   236  TRP236      0.0591
    124  CG         9.3310   55.8680   30.5930 C.ar  236  TRP236      0.0006
    125  CD1        8.8890   56.9560   29.9280 C.ar  236  TRP236      0.0946
    126  CD2        9.1530   56.1390   31.9830 C.ar  236  TRP236      0.0152
    127  NE1        8.4510   57.9010   30.8150 N.ar  236  TRP236     -0.2442
    128  CE2        8.6010   57.4230   32.0870 C.ar  236  TRP236      0.0810
    129  CE3        9.4100   55.4160   33.1490 C.ar  236  TRP236      0.0012
    130  CZ2        8.2960   58.0120   33.3210 C.ar  236  TRP236      0.0191
    131  CZ3        9.1070   55.9980   34.3770 C.ar  236  TRP236      0.0001
    132  CH2        8.5550   57.2850   34.4520 C.ar  236  TRP236      0.0015
    133  N          8.6520   52.6590   31.8210 N.am  237  GLY237     -0.1716
    134  CA         7.8750   52.2710   32.9830 C.2   237  GLY237      0.1480
    135  C          8.5110   51.2810   33.9310 C.2   237  GLY237      0.2820
    136  O          9.2870   50.4340   33.5060 O.2   237  GLY237     -0.2669
    137  N          8.0900   51.3250   35.1920 N.am  238  LEU238     -0.1929
    138  CA         8.6120   50.4450   36.2240 C.3   238  LEU238      0.1731
    139  C          8.3390   48.9820   35.9620 C.2   238  LEU238      0.2616
    140  O          7.1820   48.5520   35.9520 O.2   238  LEU238     -0.2715
    141  CB         8.0090   50.8080   37.5630 C.3   238  LEU238      0.0311
    142  CG         8.1530   52.2930   37.8300 C.3   238  LEU238      0.0022
    143  CD1        7.6890   52.5940   39.2420 C.3   238  LEU238      0.0001
    144  CD2        9.6100   52.7120   37.6140 C.3   238  LEU238      0.0001
    145  N          9.4150   48.2190   35.7760 N.am  239  GLY239     -0.1955
    146  CA         9.3080   46.7900   35.5290 C.3   239  GLY239      0.1869
    147  C          8.3800   46.4840   34.3780 C.2   239  GLY239      0.2309
    148  O          8.4090   47.1840   33.3470 O.2   239  GLY239     -0.2863
    149  N          1.1910   52.2490   36.4590 N.3   246  PRO246     -0.2102
    150  CA         0.9550   52.3530   35.0170 C.3   246  PRO246      0.1504
    151  C          2.2240   52.4480   34.1840 C.2   246  PRO246      0.2576
    152  O          3.3270   52.6200   34.7030 O.2   246  PRO246     -0.2718
    153  CB         0.1400   53.6330   34.9090 C.3   246  PRO246      0.0282
    154  CG         0.7610   54.4850   35.9830 C.3   246  PRO246      0.0208
    155  CD         0.8440   53.5090   37.1400 C.3   246  PRO246      0.0893
    156  N          2.0510   52.2870   32.8810 N.am  247  GLY247     -0.1943
    157  CA         3.1650   52.3900   31.9630 C.3   247  GLY247      0.2014
    158  C          3.0860   53.8130   31.4590 C.2   247  GLY247      0.2639
    159  O          2.0070   54.4110   31.5030 O.2   247  GLY247     -0.2714
    160  N          4.1930   54.3610   30.9790 N.am  248  VAL248     -0.1963
    161  CA         4.1940   55.7380   30.5110 C.3   248  VAL248      0.1727
    162  C          4.2660   55.8240   29.0060 C.2   248  VAL248      0.2616
    163  O          5.1510   55.2490   28.3890 O.2   248  VAL248     -0.2715
    164  CB         5.3500   56.5320   31.1380 C.3   248  VAL248      0.0290
    165  CG1        5.1630   57.9950   30.8720 C.3   248  VAL248      0.0023
    166  CG2        5.4090   56.2790   32.6410 C.3   248  VAL248      0.0023
    167  N          3.3450   56.5600   28.4140 N.am  249  TYR249     -0.1974
    168  CA         3.3210   56.6800   26.9740 C.3   249  TYR249      0.1639
    169  C          3.4850   58.1150   26.5170 C.2   249  TYR249      0.2290
    170  O          3.2160   59.0660   27.2690 O.2   249  TYR249     -0.2864
    171  CB         2.0340   56.0880   26.3960 C.3   249  TYR249      0.0560
    172  CG         1.8010   54.6410   26.7540 C.ar  249  TYR249     -0.0198
    173  CD1        1.4660   54.2690   28.0550 C.ar  249  TYR249     -0.0009
    174  CD2        1.9200   53.6390   25.7910 C.ar  249  TYR249     -0.0009
    175  CE1        1.2560   52.9270   28.3920 C.ar  249  TYR249      0.0417
    176  CE2        1.7110   52.2870   26.1150 C.ar  249  TYR249      0.0417
    177  CZ         1.3800   51.9360   27.4180 C.ar  249  TYR249      0.1957
    178  OH         1.1780   50.6040   27.7480 O.3   249  TYR249     -0.2866
@<TRIPOS>BOND
     1    12    11    2
     2     8     6    1
     3     5     6    1
     4     5     2    1
     5     1     2    1
     6    11    10    1
     7     9    10    1
     8     9     3   am
     9     6     7    1
    10     2     3    1
    11    10    13    1
    12    13    14    1
    13     3     4    2
    14    28    27    2
    15    27    26    1
    16    29    30    1
    17    29    26    1
    18    14    30    1
    19   102   101    2
    20    26    25    1
    21   101   100    1
    22    98    97    2
    23    25    17   am
    24    15    16    1
    25    17    18    2
    26    17    16    1
    27    97    96    1
    28   100    99    1
    29   100   103    1
    30   105   106    1
    31    96    95    1
    32    16    19    1
    33   112   110    1
    34   103   104    1
    35   110   109    1
    36   108   107    2
    37   109   106    1
    38   109   111    1
    39   106   107    1
    40    21    23   ar
    41    21    20   ar
    42   107   113   am
    43    95    88   am
    44    23    24   ar
    45    19    20    1
    46    20    22   ar
    47    24    22   ar
    48    89    88    2
    49   113   114    1
    50    88    87    1
    51   174   176   ar
    52   174   172   ar
    53   114   117    1
    54   114   115    1
    55   176   177   ar
    56    83    82    2
    57   171   172    1
    58   171   168    1
    59   117   118    1
    60   169   168    1
    61   169   170    2
    62    79    76    1
    63   172   173   ar
    64   168   167    1
    65    87    90    1
    66    87    86    1
    67   116   115    2
    68   115   119   am
    69    82    86   am
    70    82    81    1
    71    76    77    1
    72    76    75    1
    73   177   178    1
    74   177   175   ar
    75    80    77   am
    76    80    81    1
    77    34    33    2
    78    90    91    1
    79    37    39   ar
    80    37    36   ar
    81   173   175   ar
    82    39    41   ar
    83    33    32    1
    84    77    78    2
    85    75    69   am
    86    81    84    1
    87   163   162    2
    88   167   162   am
    89   119   120    1
    90    32    35    1
    91    32    31    1
    92    70    69    2
    93    35    36    1
    94    69    68    1
    95    91    92    1
    96    84    85    1
    97   162   161    1
    98    36    38   ar
    99    41    42    1
   100    41    40   ar
   101   120   123    1
   102   120   121    1
   103    68    67    1
   104    68    71    1
   105   125   124   ar
   106   125   127   ar
   107   123   124    1
   108    93    92    2
   109    92    94   am
   110    38    40   ar
   111    73    72   ar
   112   161   160    1
   113   161   164    1
   114   124   126   ar
   115   122   121    2
   116   121   133    1
   117   127   128   ar
   118   165   164    1
   119   160   158   am
   120   164   166    1
   121    71    72    1
   122    72    74   ar
   123   158   159    2
   124   158   157    1
   125   133   134    2
   126   157   156    1
   127   126   128   ar
   128   126   129   ar
   129   128   130   ar
   130    43    44    1
   131    46    45    2
   132    44    45    1
   133    44    47    1
   134   156   151   am
   135   134   135    1
   136   129   131   ar
   137   130   132   ar
   138   148   147    2
   139   136   135    2
   140   135   137   am
   141   151   152    2
   142   151   150    1
   143   131   132   ar
   144   147   146    1
   145   153   150    1
   146   153   154    1
   147   150   149    1
   148   137   138    1
   149   146   145    1
   150   145   139   am
   151   140   139    2
   152   139   138    1
   153   154   155    1
   154   138   141    1
   155    65    64    1
   156   149   155    1
   157    66    64    1
   158    64    63    2
   159   141   142    1
   160   144   142    1
   161    60    61    1
   162    60    57    1
   163   142   143    1
   164    61    62    1
   165    58    57    1
   166    58    59    2
   167    63    62    1
   168    57    56    1
   169    48    49    1
   170    52    49    1
   171    52    53    1
   172    54    53    1
   173    51    50    2
   174    49    50    1
   175    53    55    1
