@<TRIPOS>MOLECULE
tmp/1bdgA00.pdb
 125 117 0 0 0
SMALL
GASTEIGER

@<TRIPOS>ATOM
      1  N         27.2820   27.2960   59.4440 N.3    75  GLY75      -0.1225
      2  CA        28.5880   27.8190   59.8310 C.3    75  GLY75       0.1811
      3  C         28.6610   29.3290   59.8960 C.2    75  GLY75       0.2280
      4  O         27.6220   29.9920   59.9160 O.2    75  GLY75      -0.2866
      5  N         24.5880   22.1000   58.6630 N.3   141  SER141     -0.1202
      6  CA        25.2610   22.0210   59.9540 C.3   141  SER141      0.2020
      7  C         24.3550   21.8350   61.1630 C.2   141  SER141      0.2619
      8  O         24.4890   22.5830   62.1410 O.2   141  SER141     -0.2717
      9  CB        26.0850   23.2870   60.1830 C.3   141  SER141      0.2103
     10  OG        26.7840   23.6630   59.0190 O.3   141  SER141     -0.2182
     11  N         23.4700   20.8460   61.1620 N.am  142  PHE142     -0.1962
     12  CA        22.6090   20.6650   62.3230 C.3   142  PHE142      0.1756
     13  C         22.3190   19.1940   62.5560 C.2   142  PHE142      0.2461
     14  O         22.5150   18.3730   61.6600 O.2   142  PHE142     -0.2730
     15  CB        21.3040   21.4660   62.1580 C.3   142  PHE142      0.0574
     16  CG        21.5020   22.9600   62.1700 C.ar  142  PHE142     -0.0200
     17  CD1       21.7030   23.6390   63.3620 C.ar  142  PHE142     -0.0042
     18  CD2       21.5470   23.6780   60.9830 C.ar  142  PHE142     -0.0042
     19  CE1       21.9510   25.0000   63.3620 C.ar  142  PHE142     -0.0003
     20  CE2       21.7950   25.0360   60.9850 C.ar  142  PHE142     -0.0003
     21  CZ        21.9970   25.6920   62.1700 C.ar  142  PHE142     -0.0000
     22  N         21.8830   18.8330   63.7760 N.am  143  PRO143     -0.2727
     23  CA        21.5770   17.4350   64.0850 C.3   143  PRO143      0.1402
     24  C         20.3520   17.0170   63.3090 C.2   143  PRO143      0.2269
     25  O         19.3120   17.6680   63.3900 O.2   143  PRO143     -0.2865
     26  CB        21.2800   17.4770   65.5790 C.3   143  PRO143      0.0296
     27  CG        20.6660   18.8140   65.7520 C.3   143  PRO143      0.0237
     28  CD        21.5750   19.6930   64.9320 C.3   143  PRO143      0.0939
     29  N         20.3180   24.4990   66.5000 N.3   158  THR158     -0.1203
     30  CA        21.3530   24.8400   67.4540 C.3   158  THR158      0.1994
     31  C         21.8760   26.1730   66.9480 C.2   158  THR158      0.2617
     32  O         21.4040   26.6720   65.9210 O.2   158  THR158     -0.2717
     33  CB        22.4800   23.7980   67.4640 C.3   158  THR158      0.1784
     34  OG1       23.1180   23.7600   66.1830 O.3   158  THR158     -0.2211
     35  CG2       21.9290   22.4250   67.7940 C.3   158  THR158      0.0376
     36  N         22.7890   26.7850   67.6910 N.am  159  LYS159     -0.1979
     37  CA        23.3850   28.0470   67.2800 C.3   159  LYS159      0.1596
     38  C         22.4430   29.2550   67.2660 C.2   159  LYS159      0.2287
     39  O         21.6720   29.4530   68.2080 O.2   159  LYS159     -0.2864
     40  CB        24.1130   27.8680   65.9370 C.3   159  LYS159      0.0298
     41  CG        25.3960   27.0700   66.0820 C.3   159  LYS159      0.0038
     42  CD        26.1480   26.9170   64.8040 C.3   159  LYS159      0.0206
     43  CE        25.6130   25.7990   63.9810 C.3   159  LYS159      0.1093
     44  NZ        26.6440   25.3340   62.9970 N.3   159  LYS159     -0.1314
     45  N         26.2430   16.5820   57.0850 N.3   193  ASN193     -0.1225
     46  CA        26.5680   17.5030   58.1710 C.3   193  ASN193      0.1785
     47  C         27.9650   18.1170   57.8540 C.2   193  ASN193      0.2597
     48  O         28.7470   17.5460   57.0860 O.2   193  ASN193     -0.2718
     49  CB        26.5800   16.7110   59.4790 C.3   193  ASN193      0.1169
     50  CG        26.7770   17.5790   60.6860 C.2   193  ASN193      0.2627
     51  OD1       27.8840   17.6800   61.2240 O.2   193  ASN193     -0.2716
     52  ND2       25.7100   18.2130   61.1270 N.am  193  ASN193     -0.0877
     53  N         28.2940   19.2680   58.4160 N.am  194  ASP194     -0.1974
     54  CA        29.5980   19.8410   58.1140 C.3   194  ASP194      0.1709
     55  C         30.7640   18.9490   58.5260 C.2   194  ASP194      0.2293
     56  O         31.6980   18.7890   57.7580 O.2   194  ASP194     -0.2864
     57  CB        29.7630   21.2740   58.6480 C.3   194  ASP194      0.1436
     58  CG        29.4600   21.4100   60.1340 C.2   194  ASP194      0.3671
     59  OD1       29.5040   20.4200   60.8830 O.co2 194  ASP194     -0.2456
     60  OD2       29.1890   22.5340   60.5750 O.co2 194  ASP194     -0.2456
     61  N         35.1260   20.0920   63.7660 N.3   214  ILE214     -0.1245
     62  CA        34.6840   21.4680   63.5240 C.3   214  ILE214      0.1561
     63  C         34.7390   22.2880   64.8110 C.2   214  ILE214      0.2260
     64  O         34.0420   21.9890   65.7700 O.2   214  ILE214     -0.2867
     65  CB        33.2380   21.5480   62.9780 C.3   214  ILE214      0.0252
     66  CG1       33.1630   21.0080   61.5520 C.3   214  ILE214      0.0019
     67  CG2       32.7610   22.9720   63.0100 C.3   214  ILE214      0.0019
     68  CD1       33.9430   21.8250   60.5440 C.3   214  ILE214      0.0001
     69  N         31.9490   28.4230   64.6940 N.3   217  THR217     -0.1203
     70  CA        30.7890   29.0410   65.3450 C.3   217  THR217      0.1994
     71  C         30.2440   28.0270   66.3610 C.2   217  THR217      0.2618
     72  O         29.7610   28.3950   67.4390 O.2   217  THR217     -0.2717
     73  CB        29.6920   29.4430   64.3070 C.3   217  THR217      0.1784
     74  OG1       30.2050   30.4660   63.4410 O.3   217  THR217     -0.2211
     75  CG2       28.4490   29.9870   65.0040 C.3   217  THR217      0.0376
     76  N         30.4480   26.7510   66.0360 N.am  218  GLY218     -0.1942
     77  CA        30.0270   25.6470   66.8730 C.3   218  GLY218      0.2014
     78  C         31.0260   24.5010   66.8260 C.2   218  GLY218      0.2640
     79  O         31.8630   24.4490   65.9360 O.2   218  GLY218     -0.2714
     80  N         30.9720   23.5990   67.7990 N.am  219  THR219     -0.1936
     81  CA        31.8910   22.4800   67.8270 C.3   219  THR219      0.2028
     82  C         31.1460   21.1710   67.6540 C.2   219  THR219      0.2642
     83  O         29.9920   21.0240   68.0950 O.2   219  THR219     -0.2714
     84  CB        32.7610   22.4680   69.1140 C.3   219  THR219      0.1808
     85  OG1       33.7530   21.4450   69.0100 O.3   219  THR219     -0.2208
     86  CG2       31.9320   22.2200   70.3610 C.3   219  THR219      0.0379
     87  N         31.7850   20.2480   66.9430 N.am  220  ASN220     -0.1971
     88  CA        31.2280   18.9300   66.6700 C.3   220  ASN220      0.1688
     89  C         32.2830   18.1120   65.9320 C.2   220  ASN220      0.2292
     90  O         33.1440   18.6740   65.2730 O.2   220  ASN220     -0.2864
     91  CB        29.9630   19.0430   65.8230 C.3   220  ASN220      0.1181
     92  CG        29.2200   17.7440   65.7170 C.2   220  ASN220      0.2629
     93  OD1       29.6010   16.7600   66.3290 O.2   220  ASN220     -0.2716
     94  ND2       28.1570   17.7260   64.9410 N.am  220  ASN220     -0.0877
     95  N         27.6810   14.8340   67.3160 N.3   246  GLU246     -0.1245
     96  CA        26.8260   15.9310   67.7500 C.3   246  GLU246      0.1567
     97  C         27.0570   16.0800   69.2660 C.2   246  GLU246      0.2260
     98  O         26.1210   16.0940   70.0740 O.2   246  GLU246     -0.2867
     99  CB        25.3740   15.6170   67.3880 C.3   246  GLU246      0.0388
    100  CG        24.4570   16.8280   67.2550 C.3   246  GLU246      0.1160
    101  CD        24.8920   17.8400   66.1970 C.2   246  GLU246      0.3649
    102  OE1       24.8720   17.5220   64.9900 O.co2 246  GLU246     -0.2457
    103  OE2       25.2180   18.9780   66.5830 O.co2 246  GLU246     -0.2457
    104  N         28.1300   18.6560   70.8710 N.3   248  GLY248     -0.1225
    105  CA        27.8530   19.9500   71.4590 C.3   248  GLY248      0.1811
    106  C         26.8410   19.7370   72.5700 C.2   248  GLY248      0.2280
    107  O         26.8170   20.4630   73.5650 O.2   248  GLY248     -0.2866
    108  N         23.1030   22.2640   74.2920 N.3   277  GLN277     -0.1245
    109  CA        24.4740   22.3590   73.7760 C.3   277  GLN277      0.1566
    110  C         25.4400   22.8650   74.8250 C.2   277  GLN277      0.2260
    111  O         26.3260   23.6650   74.5290 O.2   277  GLN277     -0.2867
    112  CB        24.5440   23.2460   72.5290 C.3   277  GLN277      0.0367
    113  CG        23.5350   22.9060   71.4310 C.3   277  GLN277      0.0905
    114  CD        23.8710   21.6620   70.6300 C.2   277  GLN277      0.2608
    115  OE1       23.0720   20.7400   70.5420 O.2   277  GLN277     -0.2717
    116  NE2       25.0280   21.6590   69.9950 N.am  277  GLN277     -0.0878
    117  N         29.1660   22.6170   73.9730 N.3   280  GLU280     -0.1245
    118  CA        29.5140   23.5500   72.9090 C.3   280  GLU280      0.1567
    119  C         29.7190   24.9680   73.4080 C.2   280  GLU280      0.2260
    120  O         30.6020   25.6790   72.9460 O.2   280  GLU280     -0.2867
    121  CB        28.4490   23.5560   71.8220 C.3   280  GLU280      0.0388
    122  CG        28.6090   24.6990   70.8380 C.3   280  GLU280      0.1160
    123  CD        27.6690   24.6050   69.6910 C.2   280  GLU280      0.3649
    124  OE1       26.5040   25.0060   69.8480 O.co2 280  GLU280     -0.2457
    125  OE2       28.0950   24.1180   68.6300 O.co2 280  GLU280     -0.2457
@<TRIPOS>BOND
     1    45    46    1
     2    48    47    2
     3    56    55    2
     4    47    46    1
     5    47    53   am
     6    54    53    1
     7    54    55    1
     8    54    57    1
     9    46    49    1
    10    57    58    1
    11     5     6    1
    12    10     9    1
    13     1     2    1
    14    49    50    1
    15     2     3    1
    16     3     4    2
    17     6     9    1
    18     6     7    1
    19    58    60   ar
    20    58    59   ar
    21    68    66    1
    22    50    52   am
    23    50    51    2
    24    18    20   ar
    25    18    16   ar
    26    20    21   ar
    27    11     7   am
    28    11    12    1
    29     7     8    2
    30    66    65    1
    31    14    13    2
    32    15    16    1
    33    15    12    1
    34    21    19   ar
    35    16    17   ar
    36    12    13    1
    37    13    22   am
    38    65    67    1
    39    65    62    1
    40    44    43    1
    41    24    25    2
    42    24    23    1
    43    17    19   ar
    44    74    73    1
    45    62    61    1
    46    62    63    1
    47    22    23    1
    48    22    28    1
    49    43    42    1
    50    23    26    1
    51    73    75    1
    52    73    70    1
    53    69    70    1
    54    42    41    1
    55    63    64    2
    56    28    27    1
    57    94    92   am
    58   102   101   ar
    59    90    89    2
    60    70    71    1
    61    26    27    1
    62    92    91    1
    63    92    93    2
    64    91    88    1
    65    32    31    2
    66    89    88    1
    67    79    78    2
    68    40    41    1
    69    40    37    1
    70    76    71   am
    71    76    77    1
    72    34    33    1
    73   101   103   ar
    74   101   100    1
    75    71    72    2
    76    29    30    1
    77    88    87    1
    78    78    77    1
    79    78    80   am
    80    87    82   am
    81    31    30    1
    82    31    36   am
    83   100    99    1
    84    38    37    1
    85    38    39    2
    86    37    36    1
    87    95    96    1
    88    99    96    1
    89    30    33    1
    90    33    35    1
    91    82    81    1
    92    82    83    2
    93    96    97    1
    94    80    81    1
    95    81    84    1
    96   125   123   ar
    97    85    84    1
    98    84    86    1
    99    97    98    2
   100   123   124   ar
   101   123   122    1
   102   116   114   am
   103   115   114    2
   104   114   113    1
   105   122   121    1
   106   104   105    1
   107   113   112    1
   108   105   106    1
   109   121   118    1
   110   112   109    1
   111   106   107    2
   112   118   119    1
   113   118   117    1
   114   120   119    2
   115   109   108    1
   116   109   110    1
   117   111   110    2
