@<TRIPOS>MOLECULE
tmp/1bdqA00.pdb
 114 106 0 0 0
SMALL
GASTEIGER

@<TRIPOS>ATOM
      1  N         -6.3600   28.8290   21.2450 N.3     8  ARG8       -0.1245
      2  CA        -6.4680   28.0070   22.4640 C.3     8  ARG8        0.1563
      3  C         -6.5760   28.9570   23.6570 C.2     8  ARG8        0.2260
      4  O         -5.7950   29.9180   23.6950 O.2     8  ARG8       -0.2867
      5  CB        -5.2470   27.1500   22.7160 C.3     8  ARG8        0.0307
      6  CG        -5.3760   25.7040   22.3210 C.3     8  ARG8        0.0489
      7  CD        -4.1640   24.9520   22.8230 C.3     8  ARG8        0.2205
      8  NE        -4.1920   23.5560   22.4040 N.pl3   8  ARG8       -0.0865
      9  CZ        -3.2030   22.6810   22.5980 C.cat   8  ARG8        0.5346
     10  NH1       -2.0750   23.0170   23.2180 N.pl3   8  ARG8        0.1354
     11  NH2       -3.3270   21.4510   22.1230 N.pl3   8  ARG8        0.1354
     12  N         -4.6500   26.3620   30.3800 N.3    23  LEU23      -0.1245
     13  CA        -5.7750   26.3980   29.4590 C.3    23  LEU23       0.1561
     14  C         -7.0700   26.2980   30.2620 C.2    23  LEU23       0.2260
     15  O         -7.1280   25.4420   31.1600 O.2    23  LEU23      -0.2867
     16  CB        -5.5960   25.1960   28.5070 C.3    23  LEU23       0.0270
     17  CG        -6.6850   24.6300   27.5970 C.3    23  LEU23       0.0019
     18  CD1       -6.7420   25.3820   26.2970 C.3    23  LEU23       0.0001
     19  CD2       -6.3410   23.1930   27.2580 C.3    23  LEU23       0.0001
     20  N        -10.3080   24.7870   30.6790 N.3    25  ASP25      -0.1239
     21  CA       -10.9190   23.5990   30.0960 C.3    25  ASP25       0.1674
     22  C        -12.3300   23.3060   30.6150 C.2    25  ASP25       0.2266
     23  O        -12.5030   22.7410   31.6950 O.2    25  ASP25      -0.2867
     24  CB        -9.9890   22.4340   30.3880 C.3    25  ASP25       0.1410
     25  CG       -10.0560   21.2190   29.4910 C.2    25  ASP25       0.3668
     26  OD1      -11.1140   20.8890   28.9170 O.co2  25  ASP25      -0.2456
     27  OD2       -8.9990   20.5760   29.3680 O.co2  25  ASP25      -0.2456
     28  N        -14.2390   21.0510   29.6250 N.3    27  GLY27      -0.1210
     29  CA       -14.4640   19.6140   29.5510 C.3    27  GLY27       0.1956
     30  C        -13.6530   18.8520   30.5670 C.2    27  GLY27       0.2612
     31  O        -13.3430   17.6750   30.3830 O.2    27  GLY27      -0.2717
     32  N        -13.2880   19.5400   31.6380 N.am   28  ALA28      -0.1965
     33  CA       -12.4700   19.0070   32.7020 C.3    28  ALA28       0.1728
     34  C        -13.1430   19.3710   34.0070 C.2    28  ALA28       0.2616
     35  O        -13.4290   20.5320   34.2410 O.2    28  ALA28      -0.2715
     36  CB       -11.0850   19.6180   32.6340 C.3    28  ALA28       0.0334
     37  N        -13.4730   18.3820   34.8180 N.am   29  ASP29      -0.1957
     38  CA       -14.1160   18.5780   36.1170 C.3    29  ASP29       0.1840
     39  C        -13.1150   19.0650   37.1380 C.2    29  ASP29       0.2622
     40  O        -13.4690   19.8330   38.0220 O.2    29  ASP29      -0.2715
     41  CB       -14.6670   17.2940   36.7040 C.3    29  ASP29       0.1450
     42  CG       -15.3660   16.3770   35.7370 C.2    29  ASP29       0.3671
     43  OD1      -16.2610   16.8320   35.0090 O.co2  29  ASP29      -0.2456
     44  OD2      -15.0180   15.1850   35.7110 O.co2  29  ASP29      -0.2456
     45  N        -11.9090   18.5260   37.0310 N.am   30  ASP30      -0.1971
     46  CA       -10.7900   18.8360   37.9020 C.3    30  ASP30       0.1709
     47  C         -9.6930   19.6000   37.1630 C.2    30  ASP30       0.2293
     48  O         -9.6350   19.5560   35.9250 O.2    30  ASP30      -0.2864
     49  CB       -10.2450   17.5290   38.4750 C.3    30  ASP30       0.1436
     50  CG       -11.1220   16.9030   39.5490 C.2    30  ASP30       0.3671
     51  OD1      -11.3440   17.5360   40.6070 O.co2  30  ASP30      -0.2456
     52  OD2      -11.5770   15.7600   39.3460 O.co2  30  ASP30      -0.2456
     53  N         -5.5920   20.1520   36.6510 N.3    32  ILE32      -0.1245
     54  CA        -4.3810   19.3230   36.6750 C.3    32  ILE32       0.1561
     55  C         -3.2350   20.2520   36.2700 C.2    32  ILE32       0.2260
     56  O         -3.3910   20.9450   35.2610 O.2    32  ILE32      -0.2867
     57  CB        -4.4410   18.1670   35.6400 C.3    32  ILE32       0.0252
     58  CG1       -5.8460   17.5650   35.5740 C.3    32  ILE32       0.0019
     59  CG2       -3.4320   17.0990   36.0420 C.3    32  ILE32       0.0019
     60  CD1       -6.1740   16.8270   34.2970 C.3    32  ILE32       0.0001
     61  N         -7.4240    9.8170   38.1600 N.3    47  VAL47      -0.1231
     62  CA        -8.3610   10.5910   37.3750 C.3    47  VAL47       0.1692
     63  C         -8.2900   10.0390   35.9600 C.2    47  VAL47       0.2593
     64  O         -7.3180    9.3700   35.5860 O.2    47  VAL47      -0.2718
     65  CB        -7.9060   12.0960   37.5260 C.3    47  VAL47       0.0266
     66  CG1       -7.2480   12.6730   36.2820 C.3    47  VAL47       0.0020
     67  CG2       -9.1390   12.8900   37.8830 C.3    47  VAL47       0.0020
     68  N         -9.3290   10.3160   35.1970 N.am   48  GLY48      -0.1942
     69  CA        -9.3150    9.8100   33.8510 C.3    48  GLY48       0.2014
     70  C        -10.0420   10.5770   32.8100 C.2    48  GLY48       0.2639
     71  O        -11.0470   11.2620   33.0420 O.2    48  GLY48      -0.2714
     72  N         -9.4120   10.3130   31.6860 N.am   49  GLY49      -0.1939
     73  CA        -9.8240   10.8770   30.4380 C.3    49  GLY49       0.2014
     74  C         -9.8010    9.8650   29.3030 C.2    49  GLY49       0.2638
     75  O         -9.8910    8.6440   29.5010 O.2    49  GLY49      -0.2714
     76  N         -9.7040   10.4080   28.0930 N.am   50  ILE50      -0.1977
     77  CA        -9.7280    9.6120   26.8550 C.3    50  ILE50       0.1596
     78  C         -8.2590    9.2180   26.7140 C.2    50  ILE50       0.2287
     79  O         -7.3640   10.0520   26.8810 O.2    50  ILE50      -0.2864
     80  CB        -9.9940   10.3930   25.5330 C.3    50  ILE50       0.0276
     81  CG1      -11.1350   11.3890   25.6880 C.3    50  ILE50       0.0022
     82  CG2      -10.2360    9.3820   24.4250 C.3    50  ILE50       0.0022
     83  CD1      -10.5970   12.8010   25.6930 C.3    50  ILE50       0.0001
     84  N         -4.3280    8.1270   34.3680 N.3    54  ILE54      -0.1245
     85  CA        -3.2180    8.9230   34.8710 C.3    54  ILE54       0.1561
     86  C         -3.3130    8.9260   36.3790 C.2    54  ILE54       0.2260
     87  O         -4.3920    8.9610   36.9840 O.2    54  ILE54      -0.2867
     88  CB        -3.1520   10.4490   34.4630 C.3    54  ILE54       0.0252
     89  CG1       -4.5450   11.0880   34.3070 C.3    54  ILE54       0.0019
     90  CG2       -2.2680   10.5330   33.2280 C.3    54  ILE54       0.0019
     91  CD1       -4.4730   12.5940   34.0950 C.3    54  ILE54       0.0001
     92  N         -0.1970   16.5160   29.5730 N.3    81  PRO81      -0.2102
     93  CA         0.4010   17.2410   28.4150 C.3    81  PRO81       0.1504
     94  C          0.3980   18.7780   28.5470 C.2    81  PRO81       0.2575
     95  O          1.3820   19.3800   28.0930 O.2    81  PRO81      -0.2718
     96  CB        -0.4000   16.7670   27.1970 C.3    81  PRO81       0.0282
     97  CG        -0.7540   15.3880   27.6290 C.3    81  PRO81       0.0208
     98  CD        -1.2560   15.6530   29.0230 C.3    81  PRO81       0.0893
     99  N         -0.6830   19.3990   29.0820 N.am   82  ILE82      -0.1980
    100  CA        -0.8110   20.8610   29.2690 C.3    82  ILE82       0.1595
    101  C         -1.4470   21.1150   30.6390 C.2    82  ILE82       0.2287
    102  O         -1.9870   20.1860   31.2240 O.2    82  ILE82      -0.2864
    103  CB        -1.7500   21.6530   28.3170 C.3    82  ILE82       0.0276
    104  CG1       -2.2130   20.9270   27.0780 C.3    82  ILE82       0.0022
    105  CG2       -0.9070   22.8580   27.8930 C.3    82  ILE82       0.0022
    106  CD1       -3.0650   21.8600   26.2610 C.3    82  ILE82       0.0001
    107  N         -4.3110   22.4780   33.0310 N.3    84  ILE84      -0.1245
    108  CA        -5.7780   22.5340   32.9700 C.3    84  ILE84       0.1561
    109  C         -6.3230   23.1320   34.2450 C.2    84  ILE84       0.2260
    110  O         -5.8570   22.8460   35.3520 O.2    84  ILE84      -0.2867
    111  CB        -6.2280   21.0590   32.7610 C.3    84  ILE84       0.0252
    112  CG1       -5.7890   20.6120   31.3650 C.3    84  ILE84       0.0019
    113  CG2       -7.7230   20.8980   32.9330 C.3    84  ILE84       0.0019
    114  CD1       -5.7310   19.1180   31.1880 C.3    84  ILE84       0.0001
@<TRIPOS>BOND
     1     1     2    1
     2    11     9    1
     3     6     5    1
     4     6     7    1
     5     8     9    2
     6     8     7    1
     7     2     5    1
     8     2     3    1
     9     9    10    1
    10     3     4    2
    11    82    80    1
    12    80    81    1
    13    80    77    1
    14    81    83    1
    15   106   104    1
    16    18    17    1
    17    78    77    1
    18    78    79    2
    19    77    76    1
    20   104   103    1
    21    96    97    1
    22    96    93    1
    23    19    17    1
    24    17    16    1
    25    97    98    1
    26   105   103    1
    27    76    74   am
    28    95    94    2
    29   103   100    1
    30    93    94    1
    31    93    92    1
    32    16    13    1
    33    94    99   am
    34    26    25   ar
    35    98    92    1
    36    99   100    1
    37   100   101    1
    38    74    75    2
    39    74    73    1
    40    27    25   ar
    41    13    14    1
    42    13    12    1
    43    25    24    1
    44    29    28    1
    45    29    30    1
    46    21    24    1
    47    21    22    1
    48    21    20    1
    49    14    15    2
    50    31    30    2
    51    73    72    1
    52    30    32   am
    53    22    23    2
    54   101   102    2
    55   114   112    1
    56   112   111    1
    57    32    33    1
    58    72    70   am
    59    36    33    1
    60    33    34    1
    61   111   113    1
    62   111   108    1
    63    70    71    2
    64    70    69    1
    65   108   107    1
    66   108   109    1
    67    90    88    1
    68    69    68    1
    69    34    35    2
    70    34    37   am
    71    91    89    1
    72   109   110    2
    73    60    58    1
    74    89    88    1
    75    84    85    1
    76    88    85    1
    77    37    38    1
    78    85    86    1
    79    43    42   ar
    80    68    63   am
    81    56    55    2
    82    58    57    1
    83    64    63    2
    84    57    59    1
    85    57    54    1
    86    44    42   ar
    87    42    41    1
    88    48    47    2
    89    63    62    1
    90    38    41    1
    91    38    39    1
    92    55    54    1
    93    66    65    1
    94    86    87    2
    95    53    54    1
    96    45    39   am
    97    45    46    1
    98    39    40    2
    99    47    46    1
   100    62    65    1
   101    62    61    1
   102    65    67    1
   103    46    49    1
   104    49    50    1
   105    52    50   ar
   106    50    51   ar
