@<TRIPOS>MOLECULE
tmp/1be2A00.pdb
 184 174 0 0 0
SMALL
GASTEIGER

@<TRIPOS>ATOM
      1  N         -2.5240    1.5370    9.0280 N.3     6  VAL6       -0.1245
      2  CA        -2.0450    1.5890    7.6070 C.3     6  VAL6        0.1561
      3  C         -0.7900    2.4190    7.5320 C.2     6  VAL6        0.2260
      4  O          0.2410    1.9180    7.1370 O.2     6  VAL6       -0.2867
      5  CB        -3.1990    2.1880    6.7180 C.3     6  VAL6        0.0252
      6  CG1       -2.8090    3.4780    5.9970 C.3     6  VAL6        0.0019
      7  CG2       -3.5970    1.2250    5.6330 C.3     6  VAL6        0.0019
      8  N          2.1690    1.3230    9.5250 N.3     9  LYS9       -0.1231
      9  CA         2.7020    0.0680    8.9390 C.3     9  LYS9        0.1693
     10  C          3.4840    0.5160    7.6960 C.2     9  LYS9        0.2591
     11  O          4.6710    0.3170    7.5930 O.2     9  LYS9       -0.2718
     12  CB         1.5250   -0.8450    8.5320 C.3     9  LYS9        0.0285
     13  CG         2.0000   -2.2930    8.1960 C.3     9  LYS9        0.0035
     14  CD         3.2480   -2.3740    7.2630 C.3     9  LYS9        0.0206
     15  CE         3.0030   -1.9220    5.8110 C.3     9  LYS9        0.1093
     16  NZ         4.3100   -2.0210    5.0980 N.3     9  LYS9       -0.1314
     17  N          2.8100    1.1040    6.7560 N.am   10  MET10      -0.1979
     18  CA         3.4250    1.5940    5.4920 C.3    10  MET10       0.1605
     19  C          4.7020    2.4560    5.7080 C.2    10  MET10       0.2287
     20  O          5.7320    2.2070    5.1130 O.2    10  MET10      -0.2864
     21  CB         2.2720    2.3450    4.7800 C.3    10  MET10       0.0413
     22  CG         1.2910    1.3480    4.0360 C.3    10  MET10       0.0598
     23  SD         0.7150   -0.2070    4.7680 S.3    10  MET10      -0.1393
     24  CE         0.9240   -1.2600    3.3030 C.3    10  MET10       0.0692
     25  N          8.3340    1.5020    4.8370 N.3    13  CYS13      -0.1221
     26  CA         8.3560    1.1750    3.3800 C.3    13  CYS13       0.1808
     27  C          8.2050    2.5250    2.6190 C.2    13  CYS13       0.2601
     28  O          8.7810    2.7850    1.5780 O.2    13  CYS13      -0.2717
     29  CB         7.2210    0.2710    3.1240 C.3    13  CYS13       0.0970
     30  SG         6.9340   -1.1100    4.2650 S.3    13  CYS13      -0.0800
     31  N          7.3860    3.3900    3.1730 N.am   14  LEU14      -0.1979
     32  CA         7.2130    4.7260    2.4970 C.3    14  LEU14       0.1596
     33  C          8.6420    5.2560    2.3160 C.2    14  LEU14       0.2287
     34  O          9.0200    5.7260    1.2640 O.2    14  LEU14      -0.2864
     35  CB         6.4210    5.7350    3.3400 C.3    14  LEU14       0.0297
     36  CG         5.0120    5.2170    3.5960 C.3    14  LEU14       0.0022
     37  CD1        4.2000    6.3700    4.1310 C.3    14  LEU14       0.0001
     38  CD2        4.3320    4.6800    2.3360 C.3    14  LEU14       0.0001
     39  N         11.1860    3.6990    1.8810 N.3    16  TYR16      -0.1227
     40  CA        11.6360    2.9330    0.6530 C.3    16  TYR16       0.1736
     41  C         11.0920    3.6520   -0.6190 C.2    16  TYR16       0.2595
     42  O         11.9220    4.1430   -1.3590 O.2    16  TYR16      -0.2718
     43  CB        11.1270    1.4620    0.8720 C.3    16  TYR16       0.0548
     44  CG        10.7190    0.6060   -0.3450 C.ar   16  TYR16      -0.0200
     45  CD1       11.6420    0.1220   -1.2430 C.ar   16  TYR16      -0.0009
     46  CD2        9.3870    0.2580   -0.5170 C.ar   16  TYR16      -0.0009
     47  CE1       11.2440   -0.7000   -2.2820 C.ar   16  TYR16       0.0417
     48  CE2        8.9870   -0.5650   -1.5520 C.ar   16  TYR16       0.0417
     49  CZ         9.9260   -1.0520   -2.4410 C.ar   16  TYR16       0.1957
     50  OH         9.5520   -1.9050   -3.4550 O.3    16  TYR16      -0.2866
     51  N          9.8050    3.7230   -0.8620 N.am   17  VAL17      -0.1980
     52  CA         9.2640    4.4310   -2.0880 C.3    17  VAL17       0.1595
     53  C          9.8450    5.8550   -2.3010 C.2    17  VAL17       0.2287
     54  O          9.8590    6.2860   -3.4390 O.2    17  VAL17      -0.2864
     55  CB         7.6870    4.5130   -2.0280 C.3    17  VAL17       0.0276
     56  CG1        7.0360    3.1020   -2.1070 C.3    17  VAL17       0.0022
     57  CG2        7.2490    5.1290   -0.7240 C.3    17  VAL17       0.0022
     58  N          7.2760   -5.3380    4.8210 N.3    27  CYS27      -0.1235
     59  CA         6.2340   -4.7570    3.9550 C.3    27  CYS27       0.1677
     60  C          5.4430   -5.8980    3.3480 C.2    27  CYS27       0.2270
     61  O          4.3610   -6.1540    3.8240 O.2    27  CYS27      -0.2867
     62  CB         6.9440   -3.9210    2.9070 C.3    27  CYS27       0.0956
     63  SG         8.0480   -2.6230    3.5280 S.3    27  CYS27      -0.0801
     64  N          1.7490   -6.0290    4.6120 N.3    31  VAL31      -0.1245
     65  CA         0.8800   -5.6290    3.4550 C.3    31  VAL31       0.1561
     66  C         -0.1450   -6.7080    3.2580 C.2    31  VAL31       0.2260
     67  O         -1.3280   -6.4460    3.3550 O.2    31  VAL31      -0.2867
     68  CB         1.6890   -5.5150    2.1760 C.3    31  VAL31       0.0252
     69  CG1        0.7270   -5.1110    1.0330 C.3    31  VAL31       0.0019
     70  CG2        2.6320   -4.3880    2.3430 C.3    31  VAL31       0.0019
     71  N         -2.8440   -6.5540    5.7170 N.3    34  LEU34      -0.1231
     72  CA        -3.9570   -5.5950    5.3660 C.3    34  LEU34       0.1693
     73  C         -4.7390   -6.1490    4.1670 C.2    34  LEU34       0.2592
     74  O         -5.9370   -5.9870    4.1500 O.2    34  LEU34      -0.2718
     75  CB        -3.5130   -4.1850    4.8920 C.3    34  LEU34       0.0284
     76  CG        -2.6360   -3.4370    5.9130 C.3    34  LEU34       0.0019
     77  CD1       -1.2070   -3.4540    5.4530 C.3    34  LEU34       0.0001
     78  CD2       -3.0380   -1.9580    5.9550 C.3    34  LEU34       0.0001
     79  N         -4.0820   -6.7950    3.2260 N.am   35  HIS35      -0.1976
     80  CA        -4.7890   -7.3460    2.0150 C.3    35  HIS35       0.1656
     81  C         -5.6160   -8.6310    2.3080 C.2    35  HIS35       0.2291
     82  O         -6.4080   -9.0630    1.4940 O.2    35  HIS35      -0.2864
     83  CB        -3.6550   -7.5620    0.9910 C.3    35  HIS35       0.0771
     84  CG        -4.1190   -7.7900   -0.4430 C.ar   35  HIS35       0.0820
     85  ND1       -4.9210   -8.7170   -0.8360 N.ar   35  HIS35      -0.2267
     86  CD2       -3.8010   -7.1130   -1.5990 C.ar   35  HIS35       0.1154
     87  CE1       -5.0960   -8.6450   -2.1190 C.ar   35  HIS35       0.1986
     88  NE2       -4.4130   -7.6570   -2.6320 N.ar   35  HIS35      -0.2212
     89  N        -11.1260   -1.9550    2.2680 N.3    44  ARG44      -0.1245
     90  CA        -9.9540   -1.4960    1.4600 C.3    44  ARG44       0.1563
     91  C        -10.0410    0.0290    1.3260 C.2    44  ARG44       0.2260
     92  O         -9.1230    0.6920    1.7250 O.2    44  ARG44      -0.2867
     93  CB       -10.0100   -2.1940    0.0710 C.3    44  ARG44       0.0307
     94  CG        -8.7040   -2.9770   -0.2130 C.3    44  ARG44       0.0489
     95  CD        -8.6720   -4.2840    0.5470 C.3    44  ARG44       0.2205
     96  NE        -8.4810   -5.3310   -0.4990 N.pl3  44  ARG44      -0.0865
     97  CZ        -9.4120   -6.1660   -0.7210 C.cat  44  ARG44       0.5346
     98  NH1       -9.4230   -7.2290   -0.0420 N.pl3  44  ARG44       0.1354
     99  NH2      -10.2960   -5.9230   -1.5960 N.pl3  44  ARG44       0.1354
    100  N         -8.6190    2.2660    4.1140 N.3    47  VAL47      -0.1231
    101  CA        -7.1550    1.9610    4.1100 C.3    47  VAL47       0.1692
    102  C         -6.4410    2.5470    2.8550 C.2    47  VAL47       0.2592
    103  O         -5.4710    3.2620    2.9790 O.2    47  VAL47      -0.2718
    104  CB        -7.0880    0.4120    4.2290 C.3    47  VAL47       0.0266
    105  CG1       -5.9460   -0.1800    3.4540 C.3    47  VAL47       0.0020
    106  CG2       -6.8770    0.0150    5.6910 C.3    47  VAL47       0.0020
    107  N         -6.9150    2.2380    1.6770 N.am   48  CYS48      -0.1970
    108  CA        -6.3190    2.7440    0.3890 C.3    48  CYS48       0.1712
    109  C         -6.2210    4.2540    0.5150 C.2    48  CYS48       0.2296
    110  O         -5.1670    4.8160    0.3650 O.2    48  CYS48      -0.2864
    111  CB        -7.2260    2.3850   -0.8080 C.3    48  CYS48       0.0983
    112  SG        -6.4780    2.4020   -2.4560 S.3    48  CYS48      -0.0798
    113  N         -3.2930    4.9520    2.8960 N.3    51  LEU51      -0.1245
    114  CA        -1.9590    4.5790    2.3000 C.3    51  LEU51       0.1561
    115  C         -1.6580    5.5940    1.1620 C.2    51  LEU51       0.2260
    116  O         -0.5550    6.0590    0.9430 O.2    51  LEU51      -0.2867
    117  CB        -2.0920    3.0780    1.8130 C.3    51  LEU51       0.0270
    118  CG        -1.4290    2.7420    0.4070 C.3    51  LEU51       0.0019
    119  CD1       -1.1410    1.2320    0.2390 C.3    51  LEU51       0.0001
    120  CD2       -2.4120    2.9980   -0.7480 C.3    51  LEU51       0.0001
    121  N          6.1740   -3.5790   -4.6490 N.3    69  ILE69      -0.1231
    122  CA         5.6100   -4.3280   -3.5050 C.3    69  ILE69       0.1678
    123  C          4.6330   -5.4480   -3.9350 C.2    69  ILE69       0.2434
    124  O          5.0750   -6.5740   -3.8340 O.2    69  ILE69      -0.2733
    125  CB         4.9550   -3.2980   -2.5180 C.3    69  ILE69       0.0265
    126  CG1        6.0470   -2.3890   -1.8960 C.3    69  ILE69       0.0019
    127  CG2        4.2510   -3.9890   -1.3470 C.3    69  ILE69       0.0020
    128  CD1        7.0460   -3.1820   -0.9430 C.3    69  ILE69       0.0001
    129  N          3.4120   -5.2920   -4.4070 N.am   70  PRO70      -0.2729
    130  CA         2.6480   -6.4910   -4.8730 C.3    70  PRO70       0.1401
    131  C          3.4660   -7.4110   -5.8140 C.2    70  PRO70       0.2269
    132  O          3.5100   -8.6090   -5.5800 O.2    70  PRO70      -0.2865
    133  CB         1.3770   -5.8960   -5.5180 C.3    70  PRO70       0.0296
    134  CG         1.7530   -4.4220   -5.7770 C.3    70  PRO70       0.0237
    135  CD         2.6500   -4.0430   -4.5850 C.3    70  PRO70       0.0939
    136  N          1.2270  -10.4520   -3.9200 N.3    75  VAL75      -0.1245
    137  CA        -0.1630  -10.1380   -3.4260 C.3    75  VAL75       0.1561
    138  C         -1.1930   -9.8610   -4.5640 C.2    75  VAL75       0.2260
    139  O         -2.0980   -9.0680   -4.4220 O.2    75  VAL75      -0.2867
    140  CB        -0.0600   -8.9000   -2.4820 C.3    75  VAL75       0.0252
    141  CG1       -1.1240   -8.9650   -1.4060 C.3    75  VAL75       0.0019
    142  CG2        1.2990   -8.7940   -1.8090 C.3    75  VAL75       0.0019
    143  N         -2.6820   -8.1380   -7.0200 N.3    77  VAL77      -0.1245
    144  CA        -3.7770   -7.0990   -7.0080 C.3    77  VAL77       0.1561
    145  C         -3.6400   -5.8230   -7.9120 C.2    77  VAL77       0.2260
    146  O         -2.5410   -5.4660   -8.2760 O.2    77  VAL77      -0.2867
    147  CB        -3.8960   -6.7590   -5.5270 C.3    77  VAL77       0.0252
    148  CG1       -2.6470   -5.9880   -5.0380 C.3    77  VAL77       0.0019
    149  CG2       -5.1530   -6.0080   -5.2260 C.3    77  VAL77       0.0019
    150  N         -4.0660   -2.5880   -6.6070 N.3    79  TYR79      -0.1227
    151  CA        -3.3460   -1.4790   -5.8790 C.3    79  TYR79       0.1736
    152  C         -1.9230   -1.8400   -5.3650 C.2    79  TYR79       0.2596
    153  O         -1.5630   -2.9680   -5.0870 O.2    79  TYR79      -0.2718
    154  CB        -4.2240   -1.0060   -4.6840 C.3    79  TYR79       0.0548
    155  CG        -4.7270   -2.1880   -3.8900 C.ar   79  TYR79      -0.0200
    156  CD1       -3.9030   -2.8530   -3.0210 C.ar   79  TYR79      -0.0009
    157  CD2       -6.0250   -2.6080   -4.0640 C.ar   79  TYR79      -0.0009
    158  CE1       -4.3950   -3.9450   -2.3440 C.ar   79  TYR79       0.0417
    159  CE2       -6.5060   -3.6960   -3.3780 C.ar   79  TYR79       0.0417
    160  CZ        -5.6850   -4.3690   -2.5170 C.ar   79  TYR79       0.1957
    161  OH        -6.1410   -5.4720   -1.8410 O.3    79  TYR79      -0.2866
    162  N         -1.1370   -0.8010   -5.2710 N.am   80  THR80      -0.1939
    163  CA         0.2930   -0.8560   -4.7970 C.3    80  THR80       0.2028
    164  C          0.5760    0.5210   -4.1710 C.2    80  THR80       0.2642
    165  O          0.2670    1.4970   -4.8260 O.2    80  THR80      -0.2714
    166  CB         1.2810   -1.1140   -6.0130 C.3    80  THR80       0.1808
    167  OG1        1.7700    0.1180   -6.5340 O.3    80  THR80      -0.2208
    168  CG2        0.5530   -1.6250   -7.2750 C.3    80  THR80       0.0379
    169  N          1.1020    0.6110   -2.9790 N.am   81  ILE81      -0.1977
    170  CA         1.3900    1.9760   -2.3620 C.3    81  ILE81       0.1596
    171  C          1.6940    3.2620   -3.2440 C.2    81  ILE81       0.2287
    172  O          2.8150    3.6820   -3.4670 O.2    81  ILE81      -0.2864
    173  CB         2.5330    1.7100   -1.3410 C.3    81  ILE81       0.0276
    174  CG1        3.0980    2.9780   -0.6410 C.3    81  ILE81       0.0022
    175  CG2        3.6770    1.0310   -2.0600 C.3    81  ILE81       0.0022
    176  CD1        2.0070    3.6950    0.1670 C.3    81  ILE81       0.0001
    177  N        -11.9410   -0.7550   -6.9290 N.3    90  ILE90      -0.1245
    178  CA       -11.0590   -1.9370   -6.6600 C.3    90  ILE90       0.1561
    179  C        -11.7040   -3.2460   -7.2040 C.2    90  ILE90       0.2260
    180  O        -11.7820   -4.2600   -6.5390 O.2    90  ILE90      -0.2867
    181  CB       -10.7910   -1.9880   -5.0970 C.3    90  ILE90       0.0252
    182  CG1      -10.2250   -0.5950   -4.6800 C.3    90  ILE90       0.0019
    183  CG2       -9.7110   -3.0620   -4.7940 C.3    90  ILE90       0.0019
    184  CD1       -9.7910   -0.5620   -3.1930 C.3    90  ILE90       0.0001
@<TRIPOS>BOND
     1   146   145    2
     2   145   144    1
     3   168   166    1
     4   179   178    1
     5   179   180    2
     6   143   144    1
     7   144   147    1
     8   177   178    1
     9   178   181    1
    10   150   151    1
    11   167   166    1
    12   166   163    1
    13   151   152    1
    14   151   154    1
    15   131   132    2
    16   131   130    1
    17   134   133    1
    18   134   135    1
    19   147   149    1
    20   147   148    1
    21   133   130    1
    22   152   162   am
    23   152   153    2
    24   162   163    1
    25   181   183    1
    26   181   182    1
    27   130   129    1
    28   165   164    2
    29   163   164    1
    30   154   155    1
    31   182   184    1
    32   121   122    1
    33   135   129    1
    34   138   139    2
    35   138   137    1
    36   129   123   am
    37   164   169   am
    38   157   155   ar
    39   157   159   ar
    40   123   124    2
    41   123   122    1
    42   136   137    1
    43   155   156   ar
    44   122   125    1
    45   172   171    2
    46    50    49    1
    47    54    53    2
    48   137   140    1
    49   159   160   ar
    50   171   170    1
    51   156   158   ar
    52   169   170    1
    53    88    87   ar
    54    88    86   ar
    55   125   126    1
    56   125   127    1
    57   160   158   ar
    58   160   161    1
    59   140   142    1
    60   140   141    1
    61   112   111    1
    62    49    47   ar
    63    49    48   ar
    64   170   173    1
    65    53    52    1
    66    47    45   ar
    67    87    85   ar
    68    56    55    1
    69    52    55    1
    70    52    51    1
    71   175   173    1
    72    55    57    1
    73   126   128    1
    74    86    84   ar
    75    99    97    1
    76    48    46   ar
    77    42    41    2
    78   173   174    1
    79    45    44   ar
    80    51    41   am
    81    85    84   ar
    82   111   108    1
    83   120   118    1
    84    97    96    2
    85    97    98    1
    86   174   176    1
    87    41    40    1
    88    46    44   ar
    89    96    95    1
    90    84    83    1
    91    44    43    1
    92    94    93    1
    93    94    95    1
    94    93    90    1
    95   119   118    1
    96   110   109    2
    97   108   109    1
    98   108   107    1
    99   118   117    1
   100    40    43    1
   101    40    39    1
   102   116   115    2
   103    83    80    1
   104    69    68    1
   105   115   114    1
   106    34    33    2
   107    91    90    1
   108    91    92    2
   109    90    89    1
   110    82    81    2
   111    28    27    2
   112   107   102   am
   113   117   114    1
   114    80    81    1
   115    80    79    1
   116    68    70    1
   117    68    65    1
   118   114   113    1
   119    33    32    1
   120    38    36    1
   121    32    31    1
   122    32    35    1
   123    27    31   am
   124    27    26    1
   125   102   103    2
   126   102   101    1
   127    62    63    1
   128    62    59    1
   129    29    26    1
   130    29    30    1
   131    79    73   am
   132    66    67    2
   133    66    65    1
   134    24    23    1
   135    35    36    1
   136    60    61    2
   137    60    59    1
   138    26    25    1
   139   105   104    1
   140    65    64    1
   141    63    30    1
   142    36    37    1
   143    59    58    1
   144    22    23    1
   145    22    21    1
   146   101   100    1
   147   101   104    1
   148    74    73    2
   149    73    72    1
   150   104   106    1
   151    21    18    1
   152    75    72    1
   153    75    76    1
   154    16    15    1
   155    20    19    2
   156    72    71    1
   157    77    76    1
   158    18    19    1
   159    18    17    1
   160     7     5    1
   161    15    14    1
   162    76    78    1
   163     6     5    1
   164     5     2    1
   165    17    10   am
   166     4     3    2
   167    14    13    1
   168     3     2    1
   169    11    10    2
   170     2     1    1
   171    10     9    1
   172    13    12    1
   173    12     9    1
   174     9     8    1
