@<TRIPOS>MOLECULE
tmp/1be4A00.pdb
 133 124 0 0 0
SMALL
GASTEIGER

@<TRIPOS>ATOM
      1  N         47.5060   60.6770   24.6530 N.3    11  LYS11      -0.1245
      2  CA        48.4830   59.7120   24.3030 C.3    11  LYS11       0.1561
      3  C         49.7990   60.1730   24.7830 C.2    11  LYS11       0.2260
      4  O         49.9690   61.3340   25.1060 O.2    11  LYS11      -0.2867
      5  CB        48.3590   59.3760   22.8260 C.3    11  LYS11       0.0271
      6  CG        47.0860   58.5100   22.5800 C.3    11  LYS11       0.0035
      7  CD        46.9330   58.0920   21.1010 C.3    11  LYS11       0.0206
      8  CE        45.9560   56.9250   20.9720 C.3    11  LYS11       0.1093
      9  NZ        45.7490   56.6410   19.5230 N.3    11  LYS11      -0.1314
     10  N         42.8310   47.7640   23.9400 N.3    51  TYR51      -0.1241
     11  CA        42.8510   47.6710   22.4720 C.3    51  TYR51       0.1605
     12  C         42.2970   46.3690   21.8430 C.2    51  TYR51       0.2264
     13  O         42.3870   46.1170   20.6240 O.2    51  TYR51      -0.2867
     14  CB        44.3350   47.7710   22.2390 C.3    51  TYR51       0.0534
     15  CG        44.6210   49.2480   22.2310 C.ar   51  TYR51      -0.0201
     16  CD1       43.8840   49.9990   21.3240 C.ar   51  TYR51      -0.0009
     17  CD2       45.5070   49.9640   23.0370 C.ar   51  TYR51      -0.0009
     18  CE1       43.9850   51.3800   21.1710 C.ar   51  TYR51       0.0417
     19  CE2       45.6010   51.3580   22.8810 C.ar   51  TYR51       0.0417
     20  CZ        44.8600   52.1200   21.9610 C.ar   51  TYR51       0.1957
     21  OH        44.8620   53.5240   21.7410 O.3    51  TYR51      -0.2866
     22  N         41.1640   44.8770   18.3550 N.3    54  LEU54      -0.1245
     23  CA        42.1200   44.8060   17.2720 C.3    54  LEU54       0.1561
     24  C         43.3290   43.9390   17.5070 C.2    54  LEU54       0.2260
     25  O         44.3610   44.1620   16.8720 O.2    54  LEU54      -0.2867
     26  CB        42.6530   46.2480   17.3030 C.3    54  LEU54       0.0270
     27  CG        41.5080   47.2410   17.4050 C.3    54  LEU54       0.0019
     28  CD1       41.6120   48.2620   18.5310 C.3    54  LEU54       0.0001
     29  CD2       41.6490   47.9910   16.1220 C.3    54  LEU54       0.0001
     30  N         45.0420   42.4830   14.1560 N.3    57  ARG57      -0.1197
     31  CA        45.6300   43.3890   13.1890 C.3    57  ARG57       0.1779
     32  C         47.0970   43.6110   13.5570 C.2    57  ARG57       0.2305
     33  O         47.6370   43.4620   14.6690 O.2    57  ARG57      -0.2863
     34  CB        44.8810   44.7030   12.8570 C.2    57  ARG57      -0.0007
     35  CG        43.6420   44.6450   11.9500 C.2    57  ARG57       0.0176
     36  CD        43.0920   45.9310   11.2820 C.3    57  ARG57       0.2464
     37  NE        41.9060   46.4750   12.0180 N.pl3  57  ARG57      -0.0815
     38  CZ        41.3230   47.6900   11.9830 C.cat  57  ARG57       0.5349
     39  NH1       41.7660   48.6570   11.1480 N.pl3  57  ARG57       0.1354
     40  NH2       40.3210   47.8970   12.8480 N.pl3  57  ARG57       0.1354
     41  N         49.4900   46.5270   13.5190 N.3    59  PHE59      -0.1241
     42  CA        49.8350   47.6880   14.2980 C.3    59  PHE59       0.1605
     43  C         49.8620   47.4670   15.7950 C.2    59  PHE59       0.2264
     44  O         50.6320   48.1290   16.5160 O.2    59  PHE59      -0.2867
     45  CB        49.2330   48.9640   13.6890 C.3    59  PHE59       0.0534
     46  CG        47.7750   49.2350   13.9610 C.ar   59  PHE59      -0.0203
     47  CD1       47.3460   49.4840   15.2580 C.ar   59  PHE59      -0.0042
     48  CD2       46.8510   49.2750   12.9240 C.ar   59  PHE59      -0.0042
     49  CE1       46.0320   49.8400   15.5800 C.ar   59  PHE59      -0.0003
     50  CE2       45.5150   49.6030   13.2270 C.ar   59  PHE59      -0.0003
     51  CZ        45.1140   49.8290   14.5330 C.ar   59  PHE59      -0.0000
     52  N         51.1270   49.0560   19.4480 N.3    63  LEU63      -0.1245
     53  CA        50.2440   50.0150   19.9350 C.3    63  LEU63       0.1561
     54  C         50.6030   50.0450   21.3470 C.2    63  LEU63       0.2260
     55  O         51.0310   51.0250   21.9600 O.2    63  LEU63      -0.2867
     56  CB        48.7860   49.5830   20.0370 C.3    63  LEU63       0.0270
     57  CG        47.9270   50.5320   19.2210 C.3    63  LEU63       0.0019
     58  CD1       47.9910   52.0150   19.6400 C.3    63  LEU63       0.0001
     59  CD2       48.5360   50.3280   17.8510 C.3    63  LEU63       0.0001
     60  N         53.8020   51.5480   22.4200 N.3    66  TYR66      -0.1241
     61  CA        53.9510   52.9650   22.4590 C.3    66  TYR66       0.1605
     62  C         53.1150   53.3020   23.6270 C.2    66  TYR66       0.2264
     63  O         53.6170   53.7180   24.6780 O.2    66  TYR66      -0.2867
     64  CB        53.4710   53.3720   21.0980 C.3    66  TYR66       0.0534
     65  CG        52.7230   54.6500   20.9160 C.ar   66  TYR66      -0.0201
     66  CD1       53.1310   55.9490   21.2380 C.ar   66  TYR66      -0.0009
     67  CD2       51.5560   54.4690   20.1650 C.ar   66  TYR66      -0.0009
     68  CE1       52.2870   56.9980   20.8450 C.ar   66  TYR66       0.0417
     69  CE2       50.7250   55.5160   19.7650 C.ar   66  TYR66       0.0417
     70  CZ        51.0860   56.8190   20.1180 C.ar   66  TYR66       0.1957
     71  OH        50.1620   57.8020   19.6800 O.3    66  TYR66      -0.2866
     72  N         34.5830   63.7560   19.0920 N.3    87  ARG87      -0.1245
     73  CA        35.1490   63.1060   17.9820 C.3    87  ARG87       0.1563
     74  C         35.5730   64.0420   16.9610 C.2    87  ARG87       0.2260
     75  O         36.7390   63.9900   16.5470 O.2    87  ARG87      -0.2867
     76  CB        34.2670   61.9360   17.5510 C.3    87  ARG87       0.0307
     77  CG        34.1060   60.9370   18.6990 C.3    87  ARG87       0.0489
     78  CD        35.1480   59.8500   18.9210 C.3    87  ARG87       0.2205
     79  NE        35.5720   59.1190   17.7100 N.pl3  87  ARG87      -0.0865
     80  CZ        36.4630   58.0910   17.8210 C.cat  87  ARG87       0.5346
     81  NH1       36.9120   57.6890   19.0160 N.pl3  87  ARG87       0.1354
     82  NH2       36.9050   57.3740   16.7780 N.pl3  87  ARG87       0.1354
     83  N         41.0710   59.9600   12.8260 N.3    93  THR93      -0.1218
     84  CA        41.9310   58.9540   13.4250 C.3    93  THR93       0.1862
     85  C         43.3110   59.0400   12.7540 C.2    93  THR93       0.2287
     86  O         44.3660   59.1890   13.3940 O.2    93  THR93      -0.2866
     87  CB        41.0900   57.6730   13.7310 C.3    93  THR93       0.1770
     88  OG1       40.1780   57.8520   14.8210 O.3    93  THR93      -0.2211
     89  CG2       41.9480   56.4660   14.1790 C.3    93  THR93       0.0375
     90  N         44.0800   67.1380   16.1280 N.3   104  ARG104     -0.1245
     91  CA        44.9260   66.3810   15.2420 C.3   104  ARG104      0.1563
     92  C         45.1880   67.1270   14.0080 C.2   104  ARG104      0.2260
     93  O         46.3080   66.9430   13.4600 O.2   104  ARG104     -0.2867
     94  CB        44.1990   65.1510   14.6720 C.3   104  ARG104      0.0307
     95  CG        44.3980   64.1000   15.7650 C.3   104  ARG104      0.0489
     96  CD        44.0700   62.6530   15.2210 C.3   104  ARG104      0.2205
     97  NE        43.8700   61.7030   16.3130 N.pl3 104  ARG104     -0.0865
     98  CZ        42.8360   61.1050   16.8860 C.cat 104  ARG104      0.5346
     99  NH1       41.6330   61.2320   16.3880 N.pl3 104  ARG104      0.1354
    100  NH2       43.0630   60.3150   17.9480 N.pl3 104  ARG104      0.1354
    101  N         49.3980   58.7870   11.7420 N.3   111  VAL111     -0.1231
    102  CA        48.4960   57.9340   12.4300 C.3   111  VAL111      0.1692
    103  C         49.0190   57.3230   13.6210 C.2   111  VAL111      0.2592
    104  O         48.2950   57.0790   14.5930 O.2   111  VAL111     -0.2718
    105  CB        48.0830   56.8900   11.4460 C.3   111  VAL111      0.0266
    106  CG1       46.9650   56.3310   12.2860 C.3   111  VAL111      0.0020
    107  CG2       47.5050   57.7760   10.3580 C.3   111  VAL111      0.0020
    108  N         50.2920   56.9230   13.4580 N.am  112  GLY112     -0.1957
    109  CA        50.8450   56.1900   14.6100 C.3   112  GLY112      0.1869
    110  C         51.2390   56.9920   15.8120 C.2   112  GLY112      0.2309
    111  O         51.7190   56.3980   16.8000 O.2   112  GLY112     -0.2863
    112  N         49.3240   60.0430   17.2190 N.3   114  ASN114     -0.1240
    113  CA        48.1320   60.9020   17.0340 C.3   114  ASN114      0.1653
    114  C         47.3570   61.4760   18.2530 C.2   114  ASN114      0.2266
    115  O         46.1370   61.6110   18.4230 O.2   114  ASN114     -0.2867
    116  CB        47.3320   60.1860   15.9230 C.3   114  ASN114      0.1155
    117  CG        46.4520   59.1200   16.6480 C.2   114  ASN114      0.2627
    118  OD1       46.6650   58.7180   17.8260 O.2   114  ASN114     -0.2716
    119  ND2       45.4090   58.6150   15.9650 N.am  114  ASN114     -0.0877
    120  N         43.2060   59.9740   22.1970 N.3   117  HIS117     -0.1226
    121  CA        42.1560   59.0470   21.8550 C.3   117  HIS117      0.1752
    122  C         40.8200   59.4180   22.5160 C.2   117  HIS117      0.2596
    123  O         40.8140   59.8140   23.7340 O.2   117  HIS117     -0.2718
    124  CB        42.5610   57.6660   22.4540 C.3   117  HIS117      0.0759
    125  CG        41.3480   56.7840   22.5960 C.ar  117  HIS117      0.0818
    126  ND1       40.8060   56.1990   21.3930 N.ar  117  HIS117     -0.2268
    127  CD2       40.5550   56.5810   23.7360 C.ar  117  HIS117      0.1154
    128  CE1       39.6900   55.5590   21.8450 C.ar  117  HIS117      0.1986
    129  NE2       39.5200   55.7220   23.2030 N.ar  117  HIS117     -0.2212
    130  N         39.6990   59.2260   21.7460 N.am  118  GLY118     -0.1957
    131  CA        38.3970   59.4170   22.4440 C.3   118  GLY118      0.1869
    132  C         37.4290   58.2650   22.2290 C.2   118  GLY118      0.2309
    133  O         37.4830   57.6570   21.1270 O.2   118  GLY118     -0.2863
@<TRIPOS>BOND
     1   107   105    1
     2    39    38    1
     3    36    35    1
     4    36    37    1
     5   105   106    1
     6   105   102    1
     7   101   102    1
     8    35    34    2
     9    38    37    2
    10    38    40    1
    11   102   103    1
    12    85    86    2
    13    85    84    1
    14    83    84    1
    15    34    31    1
    16    48    50   ar
    17    48    46   ar
    18    31    32    1
    19    31    30    1
    20    50    51   ar
    21    84    87    1
    22   108   103   am
    23   108   109    1
    24    93    92    2
    25    41    42    1
    26    32    33    2
    27   103   104    2
    28    45    46    1
    29    45    42    1
    30    87    89    1
    31    87    88    1
    32    46    47   ar
    33    92    91    1
    34    42    43    1
    35    51    49   ar
    36   109   110    1
    37    94    91    1
    38    94    95    1
    39    96    95    1
    40    96    97    1
    41    91    90    1
    42    47    49   ar
    43    43    44    2
    44   110   111    2
    45   116   117    1
    46   116   113    1
    47   119   117   am
    48    29    27    1
    49    97    98    2
    50    99    98    1
    51    75    74    2
    52   117   118    2
    53    82    80    1
    54    25    24    2
    55    98   100    1
    56    74    73    1
    57   113   112    1
    58   113   114    1
    59    23    26    1
    60    23    24    1
    61    23    22    1
    62    26    27    1
    63    27    28    1
    64    76    73    1
    65    76    77    1
    66    79    80    2
    67    79    78    1
    68    80    81    1
    69    59    57    1
    70    73    72    1
    71   114   115    2
    72    77    78    1
    73    57    58    1
    74    57    56    1
    75    52    53    1
    76     9     8    1
    77    71    70    1
    78    69    70   ar
    79    69    67   ar
    80    53    56    1
    81    53    54    1
    82    70    68   ar
    83    67    65   ar
    84    13    12    2
    85    68    66   ar
    86    65    64    1
    87    65    66   ar
    88     8     7    1
    89    64    61    1
    90     7     6    1
    91   133   132    2
    92    18    16   ar
    93    18    20   ar
    94    16    15   ar
    95    54    55    2
    96   126   128   ar
    97   126   125   ar
    98    21    20    1
    99   130   131    1
   100   130   122   am
   101    12    11    1
   102   128   129   ar
   103   121   120    1
   104   121   124    1
   105   121   122    1
   106    20    19   ar
   107   132   131    1
   108    15    14    1
   109    15    17   ar
   110    14    11    1
   111    60    61    1
   112   124   125    1
   113    61    62    1
   114    11    10    1
   115   122   123    2
   116     6     5    1
   117   125   127   ar
   118     5     2    1
   119    19    17   ar
   120   129   127   ar
   121    62    63    2
   122     2     1    1
   123     2     3    1
   124     3     4    2
