@<TRIPOS>MOLECULE
tmp/1be6A00.pdb
 109 106 0 0 0
SMALL
GASTEIGER

@<TRIPOS>ATOM
      1  N          0.4350   12.4070   11.8190 N.3    63  HIS63      -0.1241
      2  CA         1.4720   12.5010   10.8000 C.3    63  HIS63       0.1621
      3  C          2.6100   13.4720   11.1360 C.2    63  HIS63       0.2264
      4  O          3.7640   13.0700   11.1970 O.2    63  HIS63      -0.2867
      5  CB         0.8280   12.8900    9.4710 C.3    63  HIS63       0.0745
      6  CG         1.7170   12.7350    8.2950 C.ar   63  HIS63       0.0817
      7  ND1        2.2380   13.8070    7.5930 N.ar   63  HIS63      -0.2268
      8  CD2        2.1720   11.6300    7.6310 C.ar   63  HIS63       0.1154
      9  CE1        2.9570   13.3820    6.5720 C.ar   63  HIS63       0.1986
     10  NE2        2.9200   12.0500    6.5890 N.ar   63  HIS63      -0.2212
     11  N          6.7240   16.5890    4.1950 N.3   124  SER124     -0.1202
     12  CA         6.3440   15.1970    4.0240 C.3   124  SER124      0.2020
     13  C          4.9390   15.2210    3.4470 C.2   124  SER124      0.2619
     14  O          3.9770   14.8160    4.0900 O.2   124  SER124     -0.2717
     15  CB         6.3510   14.4730    5.3650 C.3   124  SER124      0.2103
     16  OG         7.6740   14.1670    5.7610 O.3   124  SER124     -0.2182
     17  N          4.8400   15.7440    2.2310 N.am  125  LEU125     -0.1965
     18  CA         3.5780   15.8550    1.5070 C.3   125  LEU125      0.1728
     19  C          3.8720   16.0060    0.0280 C.2   125  LEU125      0.2617
     20  O          5.0330   16.1490   -0.3610 O.2   125  LEU125     -0.2715
     21  CB         2.7660   17.0530    1.9730 C.3   125  LEU125      0.0311
     22  CG         3.4220   18.4310    2.0140 C.3   125  LEU125      0.0022
     23  CD1        3.0500   19.2330    0.7740 C.3   125  LEU125      0.0001
     24  CD2        2.9650   19.1550    3.2720 C.3   125  LEU125      0.0001
     25  N          2.8280   15.8630   -0.7850 N.am  126  GLY126     -0.1940
     26  CA         2.9790   15.9890   -2.2130 C.3   126  GLY126      0.2014
     27  C          1.6710   15.8570   -2.9430 C.2   126  GLY126      0.2639
     28  O          0.6570   15.4420   -2.3720 O.2   126  GLY126     -0.2714
     29  N          1.7140   16.2120   -4.2210 N.am  127  GLY127     -0.1954
     30  CA         0.5200   16.1960   -5.0260 C.3   127  GLY127      0.1869
     31  C          0.8700   15.7790   -6.4240 C.2   127  GLY127      0.2309
     32  O          2.0440   15.7310   -6.7850 O.2   127  GLY127     -0.2863
     33  N          9.0920   14.5730    0.4760 N.3   151  ALA151     -0.1231
     34  CA         8.9060   13.1460    0.2210 C.3   151  ALA151      0.1694
     35  C          8.6620   12.9610   -1.2690 C.2   151  ALA151      0.2592
     36  O          7.8970   13.7120   -1.8720 O.2   151  ALA151     -0.2718
     37  CB         7.7290   12.6110    1.0110 C.3   151  ALA151      0.0304
     38  N          9.3130   11.9610   -1.8590 N.am  152  ALA152     -0.1966
     39  CA         9.1950   11.6900   -3.2930 C.3   152  ALA152      0.1728
     40  C          7.8200   11.2200   -3.7460 C.2   152  ALA152      0.2617
     41  O          7.3730   11.5160   -4.8610 O.2   152  ALA152     -0.2715
     42  CB        10.2410   10.6430   -3.7110 C.3   152  ALA152      0.0334
     43  N          7.1460   10.4720   -2.8890 N.am  153  GLY153     -0.1940
     44  CA         5.8580    9.9590   -3.2940 C.3   153  GLY153      0.2014
     45  C          5.7050    8.5030   -2.9730 C.2   153  GLY153      0.2639
     46  O          6.6940    7.8030   -2.9300 O.2   153  GLY153     -0.2714
     47  N          4.4820    8.0450   -2.7320 N.am  154  ASN154     -0.1958
     48  CA         4.2570    6.6370   -2.4320 C.3   154  ASN154      0.1819
     49  C          3.4440    5.9620   -3.5450 C.2   154  ASN154      0.2622
     50  O          2.5570    5.1400   -3.2820 O.2   154  ASN154     -0.2715
     51  CB         3.4890    6.4880   -1.1170 C.3   154  ASN154      0.1195
     52  CG         4.1470    7.2230    0.0510 C.2   154  ASN154      0.2630
     53  OD1        5.3720    7.2320    0.1600 O.2   154  ASN154     -0.2716
     54  ND2        3.3990    7.8460    0.9420 N.am  154  ASN154     -0.0877
     55  N          3.7720    6.3180   -4.7760 N.am  155  SER155     -0.1950
     56  CA         3.0820    5.7760   -5.9610 C.3   155  SER155      0.1924
     57  C          3.9280    4.7060   -6.6480 C.2   155  SER155      0.2314
     58  O          3.7710    4.4390   -7.8490 O.2   155  SER155     -0.2863
     59  CB         2.8220    6.8830   -6.9840 C.3   155  SER155      0.2116
     60  OG         2.5330    8.1020   -6.3200 O.3   155  SER155     -0.2180
     61  N          6.0280   13.1320   -7.1220 N.3   165  GLY165     -0.1210
     62  CA         4.9800   14.1550   -6.9710 C.3   165  GLY165      0.1956
     63  C          5.5470   15.5360   -6.7100 C.2   165  GLY165      0.2611
     64  O          6.7610   15.7240   -6.7350 O.2   165  GLY165     -0.2717
     65  N          4.6630   16.5020   -6.4660 N.am  166  TYR166     -0.1976
     66  CA         5.0660   17.8780   -6.1820 C.3   166  TYR166      0.1639
     67  C          4.9070   18.1050   -4.6940 C.2   166  TYR166      0.2290
     68  O          3.9820   17.5750   -4.0900 O.2   166  TYR166     -0.2864
     69  CB         4.1920   18.8560   -6.9500 C.3   166  TYR166      0.0560
     70  CG         4.4970   18.8590   -8.4190 C.ar  166  TYR166     -0.0198
     71  CD1        5.6040   19.5420   -8.9080 C.ar  166  TYR166     -0.0009
     72  CD2        3.7210   18.1290   -9.3140 C.ar  166  TYR166     -0.0009
     73  CE1        5.9300   19.5190  -10.2530 C.ar  166  TYR166      0.0417
     74  CE2        4.0350   18.0950  -10.6690 C.ar  166  TYR166      0.0417
     75  CZ         5.1520   18.7840  -11.1250 C.ar  166  TYR166      0.1957
     76  OH         5.4960   18.7410  -12.4520 O.3   166  TYR166     -0.2866
     77  N          4.8630    3.8240    7.6820 N.3   217  ASN217     -0.1225
     78  CA         5.5900    3.5630    6.4470 C.3   217  ASN217      0.1785
     79  C          5.2980    4.7090    5.4960 C.2   217  ASN217      0.2598
     80  O          4.2490    5.3290    5.5750 O.2   217  ASN217     -0.2718
     81  CB         5.1030    2.2830    5.7610 C.3   217  ASN217      0.1169
     82  CG         5.4510    1.0300    6.5150 C.2   217  ASN217      0.2627
     83  OD1        5.9970    1.0780    7.6090 O.2   217  ASN217     -0.2716
     84  ND2        5.1250   -0.1120    5.9270 N.am  217  ASN217     -0.0877
     85  N          6.2180    4.9660    4.5810 N.am  218  GLY218     -0.1942
     86  CA         6.0070    6.0320    3.6250 C.3   218  GLY218      0.2014
     87  C          7.2580    6.8660    3.4170 C.2   218  GLY218      0.2640
     88  O          8.1560    6.9030    4.2610 O.2   218  GLY218     -0.2714
     89  N          7.2930    7.5280    2.2750 N.am  219  THR219     -0.1936
     90  CA         8.4090    8.4130    1.9560 C.3   219  THR219      0.2028
     91  C          8.2830    9.6520    2.8420 C.2   219  THR219      0.2643
     92  O          9.1680   10.5180    2.8570 O.2   219  THR219     -0.2714
     93  CB         8.4010    8.7810    0.4650 C.3   219  THR219      0.1808
     94  OG1        7.2400    9.5310    0.1460 O.3   219  THR219     -0.2208
     95  CG2        8.4220    7.5580   -0.4590 C.3   219  THR219      0.0379
     96  N          7.3250    9.8410    3.5350 N.am  220  SER220     -0.1935
     97  CA         6.9660   10.9140    4.4780 C.3   220  SER220      0.2055
     98  C          7.6980   10.7100    5.8020 C.2   220  SER220      0.2642
     99  O          7.5460   11.4970    6.7470 O.2   220  SER220     -0.2714
    100  CB         5.4600   10.8940    4.7520 C.3   220  SER220      0.2130
    101  OG         4.7510   11.3280    3.6000 O.3   220  SER220     -0.2179
    102  N          8.3130    9.4670    5.8500 N.am  221  MET221     -0.1976
    103  CA         9.1100    9.0940    7.0200 C.3   221  MET221      0.1605
    104  C         10.5910    9.2370    6.7000 C.2   221  MET221      0.2287
    105  O         11.4150    9.4820    7.5900 O.2   221  MET221     -0.2864
    106  CB         8.8320    7.6410    7.4050 C.3   221  MET221      0.0413
    107  CG         7.6810    7.4960    8.3990 C.3   221  MET221      0.0598
    108  SD         6.0900    7.8020    7.6630 S.3   221  MET221     -0.1393
    109  CE         5.3020    9.1790    8.4690 C.3   221  MET221      0.0692
@<TRIPOS>BOND
     1    76    75    1
     2    75    74   ar
     3    75    73   ar
     4    74    72   ar
     5    73    71   ar
     6    72    70   ar
     7    71    70   ar
     8    70    69    1
     9    58    57    2
    10    61    62    1
    11    59    60    1
    12    59    56    1
    13    62    63    1
    14    69    66    1
    15    32    31    2
    16    64    63    2
    17    63    65   am
    18    57    56    1
    19    65    66    1
    20    31    30    1
    21    66    67    1
    22    56    55    1
    23    30    29    1
    24    41    40    2
    25    55    49   am
    26    67    68    2
    27    29    27   am
    28    40    39    1
    29    40    43   am
    30    42    39    1
    31    49    50    2
    32    49    48    1
    33    44    45    1
    34    44    43    1
    35    39    38    1
    36    45    46    2
    37    45    47   am
    38    27    28    2
    39    27    26    1
    40    47    48    1
    41    48    51    1
    42    26    25    1
    43    36    35    2
    44    38    35   am
    45    35    34    1
    46    51    52    1
    47    25    19   am
    48    95    93    1
    49    20    19    2
    50    19    18    1
    51    52    53    2
    52    52    54   am
    53    94    93    1
    54    34    33    1
    55    34    37    1
    56    93    90    1
    57    23    22    1
    58    18    21    1
    59    18    17    1
    60    90    89    1
    61    90    91    1
    62    21    22    1
    63    22    24    1
    64    17    13   am
    65    89    87   am
    66    91    92    2
    67    91    96   am
    68    87    86    1
    69    87    88    2
    70    13    12    1
    71    13    14    2
    72    96    97    1
    73   101   100    1
    74    86    85    1
    75    12    11    1
    76    12    15    1
    77    97   100    1
    78    97    98    1
    79    85    79   am
    80    15    16    1
    81    79    80    2
    82    79    78    1
    83    81    78    1
    84    81    82    1
    85    98   102   am
    86    98    99    2
    87   102   103    1
    88    84    82   am
    89    78    77    1
    90    82    83    2
    91     9    10   ar
    92     9     7   ar
    93    10     8   ar
    94   104   103    1
    95   104   105    2
    96   103   106    1
    97   106   107    1
    98     7     6   ar
    99     8     6   ar
   100   108   107    1
   101   108   109    1
   102     6     5    1
   103     5     2    1
   104     2     3    1
   105     2     1    1
   106     3     4    2
