@<TRIPOS>MOLECULE
tmp/1be9A00.pdb
 124 120 0 0 0
SMALL
GASTEIGER

@<TRIPOS>ATOM
      1  N         36.1070   73.8260   26.6470 N.3    18  ARG18      -0.1245
      2  CA        36.7590   73.5000   25.3820 C.3    18  ARG18       0.1563
      3  C         36.0700   74.0760   24.1580 C.2    18  ARG18       0.2260
      4  O         36.4640   73.7910   23.0260 O.2    18  ARG18      -0.2867
      5  CB        36.8640   71.9800   25.2340 C.3    18  ARG18       0.0307
      6  CG        35.5880   71.2420   25.6010 C.3    18  ARG18       0.0489
      7  CD        34.6480   71.1600   24.4100 C.3    18  ARG18       0.2205
      8  NE        33.5970   70.1690   24.6110 N.pl3  18  ARG18      -0.0865
      9  CZ        33.6080   68.9440   24.0910 C.cat  18  ARG18       0.5346
     10  NH1       34.6220   68.5440   23.3340 N.pl3  18  ARG18       0.1354
     11  NH2       32.6080   68.1080   24.3460 N.pl3  18  ARG18       0.1354
     12  N         38.0520   69.2840   20.6250 N.3    22  GLY22      -0.1210
     13  CA        38.0770   68.0310   21.3490 C.3    22  GLY22       0.1956
     14  C         38.5570   68.2520   22.7710 C.2    22  GLY22       0.2612
     15  O         39.1910   69.2610   23.0670 O.2    22  GLY22      -0.2717
     16  N         38.2500   67.3090   23.6550 N.am   23  LEU23      -0.1965
     17  CA        38.6650   67.4030   25.0480 C.3    23  LEU23       0.1728
     18  C         40.1600   67.1240   25.1490 C.2    23  LEU23       0.2617
     19  O         40.8320   67.5930   26.0690 O.2    23  LEU23      -0.2715
     20  CB        37.8740   66.4090   25.8990 C.3    23  LEU23       0.0311
     21  CG        36.4510   66.8950   26.1830 C.3    23  LEU23       0.0022
     22  CD1       35.5210   65.7290   26.4120 C.3    23  LEU23       0.0001
     23  CD2       36.4730   67.8070   27.3910 C.3    23  LEU23       0.0001
     24  N         40.6810   66.3590   24.1960 N.am   24  GLY24      -0.1940
     25  CA        42.0970   66.0740   24.2040 C.3    24  GLY24       0.2014
     26  C         42.5400   64.8980   25.0450 C.2    24  GLY24       0.2639
     27  O         43.5810   64.9610   25.7110 O.2    24  GLY24      -0.2714
     28  N         41.7380   63.8380   25.0600 N.am   25  PHE25      -0.1959
     29  CA        42.1180   62.6200   25.7680 C.3    25  PHE25       0.1771
     30  C         41.4450   61.3860   25.1880 C.2    25  PHE25       0.2620
     31  O         40.4540   61.4800   24.4600 O.2    25  PHE25      -0.2715
     32  CB        41.9000   62.7330   27.2890 C.3    25  PHE25       0.0574
     33  CG        40.4630   62.8190   27.7200 C.ar   25  PHE25      -0.0200
     34  CD1       39.6920   61.6710   27.8620 C.ar   25  PHE25      -0.0042
     35  CD2       39.9140   64.0420   28.0940 C.ar   25  PHE25      -0.0042
     36  CE1       38.3890   61.7370   28.3760 C.ar   25  PHE25      -0.0003
     37  CE2       38.6150   64.1190   28.6080 C.ar   25  PHE25      -0.0003
     38  CZ        37.8550   62.9600   28.7520 C.ar   25  PHE25      -0.0000
     39  N         42.0390   60.2360   25.4840 N.am   26  ASN26      -0.1958
     40  CA        41.5810   58.9310   25.0060 C.3    26  ASN26       0.1819
     41  C         40.8970   58.1590   26.1330 C.2    26  ASN26       0.2621
     42  O         41.2840   58.2730   27.2940 O.2    26  ASN26      -0.2715
     43  CB        42.7830   58.0990   24.5320 C.3    26  ASN26       0.1195
     44  CG        43.1100   58.2960   23.0640 C.2    26  ASN26       0.2630
     45  OD1       42.8470   59.3470   22.4820 O.2    26  ASN26      -0.2716
     46  ND2       43.6990   57.2730   22.4600 N.am   26  ASN26      -0.0877
     47  N         39.8890   57.3720   25.7830 N.am   27  ILE27      -0.1963
     48  CA        39.1980   56.5570   26.7710 C.3    27  ILE27       0.1727
     49  C         39.2320   55.1000   26.3300 C.2    27  ILE27       0.2616
     50  O         39.2380   54.8070   25.1370 O.2    27  ILE27      -0.2715
     51  CB        37.7030   56.9730   26.9540 C.3    27  ILE27       0.0290
     52  CG1       36.9510   56.8790   25.6210 C.3    27  ILE27       0.0022
     53  CG2       37.6160   58.3780   27.5320 C.3    27  ILE27       0.0023
     54  CD1       35.4490   56.7330   25.7840 C.3    27  ILE27       0.0001
     55  N         39.2890   54.2030   27.3080 N.am   28  ILE28      -0.1963
     56  CA        39.2730   52.7610   27.0770 C.3    28  ILE28       0.1727
     57  C         38.2460   52.1970   28.0650 C.2    28  ILE28       0.2616
     58  O         37.8990   52.8540   29.0480 O.2    28  ILE28      -0.2715
     59  CB        40.6430   52.1000   27.3580 C.3    28  ILE28       0.0290
     60  CG1       41.0480   52.3330   28.8110 C.3    28  ILE28       0.0022
     61  CG2       41.6890   52.6710   26.4530 C.3    28  ILE28       0.0023
     62  CD1       42.4820   51.9930   29.0970 C.3    28  ILE28       0.0001
     63  N         37.7690   50.9850   27.8030 N.am   29  GLY29      -0.1955
     64  CA        36.7830   50.3660   28.6690 C.3    29  GLY29       0.1869
     65  C         35.3710   50.4900   28.1200 C.2    29  GLY29       0.2309
     66  O         35.1710   50.8850   26.9700 O.2    29  GLY29      -0.2863
     67  N         33.2970   47.8730   28.2310 N.3    31  GLU31      -0.1245
     68  CA        32.8970   46.5320   27.8280 C.3    31  GLU31       0.1567
     69  C         32.5960   45.6940   29.0650 C.2    31  GLU31       0.2260
     70  O         33.4640   45.4540   29.9050 O.2    31  GLU31      -0.2867
     71  CB        33.9930   45.8700   26.9890 C.3    31  GLU31       0.0388
     72  CG        33.9940   46.3580   25.5590 C.3    31  GLU31       0.1160
     73  CD        35.1460   45.8300   24.7400 C.2    31  GLU31       0.3649
     74  OE1       35.8430   44.8920   25.2030 O.co2  31  GLU31      -0.2457
     75  OE2       35.3570   46.3560   23.6160 O.co2  31  GLU31      -0.2457
     76  N         43.0980   56.8850   29.0490 N.3    39  SER39      -0.1202
     77  CA        44.2970   56.1350   28.7270 C.3    39  SER39       0.2020
     78  C         45.4010   57.0220   28.2000 C.2    39  SER39       0.2618
     79  O         46.5540   56.5970   28.1040 O.2    39  SER39      -0.2717
     80  CB        43.9860   55.0850   27.6640 C.3    39  SER39       0.2103
     81  OG        43.5140   55.7060   26.4810 O.3    39  SER39      -0.2182
     82  N         45.0490   58.2540   27.8600 N.am   40  PHE40      -0.1975
     83  CA        46.0200   59.1700   27.2750 C.3    40  PHE40       0.1639
     84  C         45.5340   60.6130   27.3400 C.2    40  PHE40       0.2290
     85  O         44.3570   60.8950   27.1200 O.2    40  PHE40      -0.2864
     86  CB        46.2530   58.7340   25.8110 C.3    40  PHE40       0.0560
     87  CG        47.1200   59.6650   25.0010 C.ar   40  PHE40      -0.0200
     88  CD1       46.5960   60.8380   24.4560 C.ar   40  PHE40      -0.0042
     89  CD2       48.4420   59.3240   24.7170 C.ar   40  PHE40      -0.0042
     90  CE1       47.3770   61.6550   23.6420 C.ar   40  PHE40      -0.0003
     91  CE2       49.2380   60.1400   23.8990 C.ar   40  PHE40      -0.0003
     92  CZ        48.7010   61.3040   23.3610 C.ar   40  PHE40      -0.0000
     93  N         31.3310   51.5870   25.6280 N.3    72  HIS72      -0.1241
     94  CA        32.3590   52.4200   25.0250 C.3    72  HIS72       0.1621
     95  C         31.8480   53.5460   24.1350 C.2    72  HIS72       0.2264
     96  O         32.1170   54.7230   24.4010 O.2    72  HIS72      -0.2867
     97  CB        33.3430   51.5700   24.2200 C.3    72  HIS72       0.0745
     98  CG        34.5650   52.3270   23.8040 C.ar   72  HIS72       0.0817
     99  ND1       35.7250   52.3470   24.5520 N.ar   72  HIS72      -0.2268
    100  CD2       34.8060   53.1160   22.7250 C.ar   72  HIS72       0.1154
    101  CE1       36.6150   53.1160   23.9620 C.ar   72  HIS72       0.1986
    102  NE2       36.0860   53.5960   22.8490 N.ar   72  HIS72      -0.2212
    103  N         31.7100   57.6780   24.6540 N.3    76  ALA76      -0.1245
    104  CA        32.3850   58.5570   23.7100 C.3    76  ALA76       0.1562
    105  C         31.3820   59.6010   23.2280 C.2    76  ALA76       0.2260
    106  O         31.6640   60.8020   23.2360 O.2    76  ALA76      -0.2867
    107  CB        32.9180   57.7490   22.5350 C.3    76  ALA76       0.0290
    108  N         30.7180   62.2530   25.8330 N.3    79  LEU79      -0.1231
    109  CA        31.8040   63.2280   25.9520 C.3    79  LEU79       0.1693
    110  C         31.8800   64.1840   24.7640 C.2    79  LEU79       0.2591
    111  O         31.9900   65.3960   24.9330 O.2    79  LEU79      -0.2718
    112  CB        33.1450   62.5010   26.1010 C.3    79  LEU79       0.0284
    113  CG        33.3350   61.7740   27.4360 C.3    79  LEU79       0.0019
    114  CD1       34.4250   60.7160   27.2900 C.3    79  LEU79       0.0001
    115  CD2       33.6910   62.7740   28.5290 C.3    79  LEU79       0.0001
    116  N         31.8290   63.6260   23.5630 N.am   80  LYS80      -0.1980
    117  CA        31.9070   64.4210   22.3430 C.3    80  LYS80       0.1596
    118  C         30.7410   65.4010   22.2210 C.2    80  LYS80       0.2287
    119  O         30.8870   66.5050   21.6890 O.2    80  LYS80      -0.2864
    120  CB        31.9170   63.4960   21.1210 C.3    80  LYS80       0.0298
    121  CG        33.2210   62.7510   20.9070 C.3    80  LYS80       0.0038
    122  CD        33.1740   61.8970   19.6520 C.3    80  LYS80       0.0206
    123  CE        34.5370   61.3020   19.3450 C.3    80  LYS80       0.1093
    124  NZ        34.4920   60.3720   18.1870 N.3    80  LYS80      -0.1314
@<TRIPOS>BOND
     1   124   123    1
     2   123   122    1
     3   122   121    1
     4    12    13    1
     5   121   120    1
     6   120   117    1
     7    13    14    1
     8   119   118    2
     9   118   117    1
    10   117   116    1
    11    46    44   am
    12    45    44    2
    13   107   104    1
    14   100   102   ar
    15   100    98   ar
    16    14    15    2
    17    14    16   am
    18   102   101   ar
    19     4     3    2
    20    44    43    1
    21   105   106    2
    22   105   104    1
    23    10     9    1
    24    92    90   ar
    25    92    91   ar
    26   116   110   am
    27    75    73   ar
    28    90    88   ar
    29    16    17    1
    30   104   103    1
    31    98    97    1
    32    98    99   ar
    33    91    89   ar
    34   101    99   ar
    35     9    11    1
    36     9     8    2
    37    95    96    2
    38    95    94    1
    39     3     2    1
    40    24    25    1
    41    24    18   am
    42    25    26    1
    43    97    94    1
    44     7     8    1
    45     7     6    1
    46    88    87   ar
    47    31    30    2
    48    43    40    1
    49    89    87   ar
    50    73    74   ar
    51    73    72    1
    52   110   111    2
    53   110   109    1
    54    87    86    1
    55    40    39    1
    56    40    41    1
    57    94    93    1
    58    26    28   am
    59    26    27    2
    60    17    18    1
    61    17    20    1
    62    28    29    1
    63    50    49    2
    64    18    19    2
    65    30    39   am
    66    30    29    1
    67     5     2    1
    68     5     6    1
    69     2     1    1
    70    72    71    1
    71    52    54    1
    72    52    51    1
    73    29    32    1
    74    47    41   am
    75    47    48    1
    76    86    83    1
    77   108   109    1
    78    20    21    1
    79   109   112    1
    80   112   113    1
    81    41    42    2
    82    21    22    1
    83    21    23    1
    84    49    48    1
    85    49    55   am
    86    61    59    1
    87    81    80    1
    88    48    51    1
    89    51    53    1
    90    66    65    2
    91    71    68    1
    92    56    55    1
    93    56    59    1
    94    56    57    1
    95    85    84    2
    96    83    84    1
    97    83    82    1
    98    32    33    1
    99   114   113    1
   100    59    60    1
   101   113   115    1
   102    80    77    1
   103    33    34   ar
   104    33    35   ar
   105    63    57   am
   106    63    64    1
   107    68    67    1
   108    68    69    1
   109    82    78   am
   110    34    36   ar
   111    57    58    2
   112    35    37   ar
   113    79    78    2
   114    65    64    1
   115    78    77    1
   116    36    38   ar
   117    37    38   ar
   118    77    76    1
   119    60    62    1
   120    69    70    2
