@<TRIPOS>MOLECULE
tmp/1besA01.pdb
 130 127 0 0 0
SMALL
GASTEIGER

@<TRIPOS>ATOM
      1  N         -7.2610   54.9370   15.1740 N.3   172  HIS172     -0.1226
      2  CA        -8.1090   54.2380   16.0960 C.3   172  HIS172      0.1752
      3  C         -8.6540   52.9340   15.5490 C.2   172  HIS172      0.2596
      4  O         -9.3320   52.1650   16.2440 O.2   172  HIS172     -0.2718
      5  CB        -9.1260   55.1310   16.7960 C.3   172  HIS172      0.0759
      6  CG        -8.5100   55.7750   17.9940 C.ar  172  HIS172      0.0818
      7  ND1       -9.1720   56.7460   18.7100 N.ar  172  HIS172     -0.2268
      8  CD2       -7.3020   55.5680   18.5870 C.ar  172  HIS172      0.1154
      9  CE1       -8.3880   57.0930   19.7250 C.ar  172  HIS172      0.1986
     10  NE2       -7.2440   56.4110   19.6640 N.ar  172  HIS172     -0.2212
     11  N         -8.3310   52.6620   14.3100 N.am  173  ALA173     -0.1966
     12  CA        -8.7450   51.3960   13.7370 C.3   173  ALA173      0.1728
     13  C         -7.8680   50.3260   14.3540 C.2   173  ALA173      0.2616
     14  O         -8.2160   49.1360   14.3680 O.2   173  ALA173     -0.2715
     15  CB        -8.4140   51.3190   12.2700 C.3   173  ALA173      0.0334
     16  N         -6.7250   50.7800   14.8780 N.am  174  LEU174     -0.1963
     17  CA        -5.7510   49.8880   15.4810 C.3   174  LEU174      0.1728
     18  C         -5.7480   49.5670   16.9470 C.2   174  LEU174      0.2617
     19  O         -6.0280   50.3330   17.8640 O.2   174  LEU174     -0.2715
     20  CB        -4.2910   50.1390   15.0430 C.3   174  LEU174      0.0311
     21  CG        -4.0890   50.7410   13.6770 C.3   174  LEU174      0.0022
     22  CD1       -2.9140   51.7000   13.7750 C.3   174  LEU174      0.0001
     23  CD2       -3.7780   49.6470   12.6590 C.3   174  LEU174      0.0001
     24  N         -5.3350   48.3270   17.1670 N.am  175  GLY175     -0.1940
     25  CA        -5.2200   47.8520   18.5230 C.3   175  GLY175      0.2014
     26  C         -6.5280   47.8290   19.2940 C.2   175  GLY175      0.2639
     27  O         -7.6040   47.5720   18.7360 O.2   175  GLY175     -0.2714
     28  N         -6.3850   48.1110   20.5830 N.am  176  LYS176     -0.1963
     29  CA        -7.5080   48.1140   21.4900 C.3   176  LYS176      0.1728
     30  C         -7.2780   48.8940   22.7710 C.2   176  LYS176      0.2616
     31  O         -6.1770   49.3500   23.0490 O.2   176  LYS176     -0.2715
     32  CB        -7.6790   46.6560   21.8850 C.3   176  LYS176      0.0311
     33  CG        -6.6890   46.2280   22.9580 C.3   176  LYS176      0.0038
     34  CD        -6.5290   44.7200   23.0550 C.3   176  LYS176      0.0206
     35  CE        -7.7270   44.0340   23.6850 C.3   176  LYS176      0.1093
     36  NZ        -7.8440   44.3070   25.1240 N.3   176  LYS176     -0.1314
     37  N         -8.3550   49.0140   23.5690 N.am  177  THR177     -0.1951
     38  CA        -8.3340   49.6640   24.8640 C.3   177  THR177      0.1897
     39  C         -8.0840   48.5560   25.8640 C.2   177  THR177      0.2313
     40  O         -8.3760   47.4000   25.5390 O.2   177  THR177     -0.2863
     41  CB        -9.6650   50.3740   25.2090 C.3   177  THR177      0.1794
     42  OG1      -10.7580   49.4590   25.3160 O.3   177  THR177     -0.2208
     43  CG2       -9.9460   51.4110   24.1300 C.3   177  THR177      0.0378
     44  N        -11.9940   46.5510   21.5510 N.3   187  PRO187     -0.2116
     45  CA       -13.0530   45.6380   21.1930 C.3   187  PRO187      0.1372
     46  C        -12.8840   44.2170   21.6860 C.2   187  PRO187      0.2244
     47  O        -11.8350   43.7840   22.1680 O.2   187  PRO187     -0.2868
     48  CB       -13.1110   45.6150   19.6740 C.3   187  PRO187      0.0268
     49  CG       -11.6990   45.9420   19.2250 C.3   187  PRO187      0.0207
     50  CD       -11.0680   46.6830   20.3960 C.3   187  PRO187      0.0892
     51  N         -7.5050   44.7120   15.3650 N.3   192  ASN192     -0.1240
     52  CA        -6.9010   44.6670   14.0590 C.3   192  ASN192      0.1653
     53  C         -5.4690   45.2140   14.0650 C.2   192  ASN192      0.2266
     54  O         -5.0780   46.0100   14.9230 O.2   192  ASN192     -0.2867
     55  CB        -7.8500   45.3660   13.0740 C.3   192  ASN192      0.1155
     56  CG        -7.1900   45.7190   11.7740 C.2   192  ASN192      0.2627
     57  OD1       -6.9070   44.8420   10.9360 O.2   192  ASN192     -0.2716
     58  ND2       -6.9360   47.0130   11.6210 N.am  192  ASN192     -0.0877
     59  N        -10.7960   51.3290    8.0180 N.3   198  GLU198     -0.1231
     60  CA       -11.7950   50.6480    8.8080 C.3   198  GLU198      0.1699
     61  C        -12.4760   51.4820    9.8800 C.2   198  GLU198      0.2592
     62  O        -13.6640   51.3330   10.1280 O.2   198  GLU198     -0.2718
     63  CB       -11.2060   49.3660    9.4170 C.3   198  GLU198      0.0402
     64  CG       -12.2540   48.4980   10.1350 C.3   198  GLU198      0.1161
     65  CD       -11.6820   47.2600   10.7710 C.2   198  GLU198      0.3649
     66  OE1      -10.6770   46.6990   10.3710 O.co2 198  GLU198     -0.2457
     67  OE2      -12.3890   46.8490   11.7940 O.co2 198  GLU198     -0.2457
     68  N        -11.7440   52.3530   10.5640 N.am  199  PHE199     -0.1976
     69  CA       -12.3190   53.1930   11.6200 C.3   199  PHE199      0.1639
     70  C        -13.5740   53.9630   11.2000 C.2   199  PHE199      0.2290
     71  O        -14.5640   54.0140   11.9360 O.2   199  PHE199     -0.2864
     72  CB       -11.2770   54.2080   12.0810 C.3   199  PHE199      0.0560
     73  CG       -11.7020   55.3080   13.0520 C.ar  199  PHE199     -0.0200
     74  CD1      -11.8240   55.0510   14.4160 C.ar  199  PHE199     -0.0042
     75  CD2      -11.9170   56.6140   12.6060 C.ar  199  PHE199     -0.0042
     76  CE1      -12.1780   56.0540   15.3190 C.ar  199  PHE199     -0.0003
     77  CE2      -12.2860   57.6310   13.4870 C.ar  199  PHE199     -0.0003
     78  CZ       -12.4040   57.3430   14.8430 C.ar  199  PHE199     -0.0000
     79  N        -16.4990   51.6650   10.2470 N.3   202  ASN202     -0.1240
     80  CA       -17.1820   51.2350   11.4560 C.3   202  ASN202      0.1653
     81  C        -18.0300   52.3170   12.0690 C.2   202  ASN202      0.2266
     82  O        -19.1030   52.0940   12.5940 O.2   202  ASN202     -0.2867
     83  CB       -16.2580   50.7320   12.5640 C.3   202  ASN202      0.1155
     84  CG       -15.7310   49.3680   12.2240 C.2   202  ASN202      0.2627
     85  OD1      -16.0290   48.8670   11.1210 O.2   202  ASN202     -0.2716
     86  ND2      -14.9400   48.7790   13.1400 N.am  202  ASN202     -0.0877
     87  N        -17.4460   45.8220   18.3250 N.3   226  TYR226     -0.1227
     88  CA       -16.5620   46.9810   18.3060 C.3   226  TYR226      0.1736
     89  C        -16.9210   47.9850   19.3790 C.2   226  TYR226      0.2595
     90  O        -17.9840   47.9100   19.9960 O.2   226  TYR226     -0.2718
     91  CB       -16.6560   47.7690   17.0000 C.3   226  TYR226      0.0548
     92  CG       -16.3800   46.8870   15.8340 C.ar  226  TYR226     -0.0200
     93  CD1      -15.1570   46.2260   15.7310 C.ar  226  TYR226     -0.0009
     94  CD2      -17.3400   46.7140   14.8400 C.ar  226  TYR226     -0.0009
     95  CE1      -14.8970   45.3870   14.6510 C.ar  226  TYR226      0.0417
     96  CE2      -17.0890   45.8880   13.7480 C.ar  226  TYR226      0.0417
     97  CZ       -15.8690   45.2220   13.6660 C.ar  226  TYR226      0.1957
     98  OH       -15.6170   44.4160   12.5860 O.3   226  TYR226     -0.2866
     99  N        -15.9980   48.9310   19.5700 N.am  227  MET227     -0.1965
    100  CA       -16.1170   50.0230   20.5250 C.3   227  MET227      0.1736
    101  C        -15.5260   51.3260   20.0020 C.2   227  MET227      0.2616
    102  O        -14.6320   51.3460   19.1450 O.2   227  MET227     -0.2715
    103  CB       -15.8160   49.7520   22.0200 C.3   227  MET227      0.0427
    104  CG       -14.3370   49.7480   22.3810 C.3   227  MET227      0.0599
    105  SD       -13.5470   51.3810   22.3660 S.3   227  MET227     -0.1393
    106  CE       -13.6310   51.7510   24.1190 C.3   227  MET227      0.0692
    107  N        -16.0530   52.4200   20.5460 N.am  228  MET228     -0.1963
    108  CA       -15.6260   53.7500   20.1620 C.3   228  MET228      0.1736
    109  C        -15.6930   54.6220   21.3700 C.2   228  MET228      0.2616
    110  O        -16.6830   54.5630   22.0790 O.2   228  MET228     -0.2715
    111  CB       -16.6170   54.3870   19.1750 C.3   228  MET228      0.0427
    112  CG       -16.5930   53.8160   17.7780 C.3   228  MET228      0.0599
    113  SD       -15.1600   54.3990   16.8470 S.3   228  MET228     -0.1393
    114  CE       -15.2270   53.3700   15.3650 C.3   228  MET228      0.0692
    115  N        -14.6610   55.4220   21.6060 N.am  229  LEU229     -0.1977
    116  CA       -14.6800   56.3300   22.7390 C.3   229  LEU229      0.1596
    117  C        -15.5600   57.5150   22.3590 C.2   229  LEU229      0.2287
    118  O        -15.8230   57.8210   21.1880 O.2   229  LEU229     -0.2864
    119  CB       -13.2970   56.9460   23.0510 C.3   229  LEU229      0.0297
    120  CG       -12.2010   55.8930   23.0670 C.3   229  LEU229      0.0022
    121  CD1      -10.8500   56.5510   22.7790 C.3   229  LEU229      0.0001
    122  CD2      -12.2000   55.1710   24.4210 C.3   229  LEU229      0.0001
    123  N        -14.2740   59.5540   19.9940 N.3   232  ASP232     -0.1239
    124  CA       -14.3000   59.0080   18.6490 C.3   232  ASP232      0.1674
    125  C        -15.6640   59.2560   18.0370 C.2   232  ASP232      0.2266
    126  O        -15.8270   59.7250   16.9000 O.2   232  ASP232     -0.2867
    127  CB       -14.0850   57.4750   18.5910 C.3   232  ASP232      0.1410
    128  CG       -12.6770   57.0560   18.8760 C.2   232  ASP232      0.3668
    129  OD1      -11.7000   57.6590   18.4570 O.co2 232  ASP232     -0.2456
    130  OD2      -12.6370   55.9560   19.5980 O.co2 232  ASP232     -0.2456
@<TRIPOS>BOND
     1    59    60    1
     2    60    63    1
     3    60    61    1
     4    63    64    1
     5    61    62    2
     6    61    68   am
     7    64    65    1
     8    79    80    1
     9    66    65   ar
    10    68    69    1
    11    65    67   ar
    12    57    56    2
    13    85    84    2
    14    70    69    1
    15    70    71    2
    16    80    81    1
    17    80    83    1
    18    69    72    1
    19    58    56   am
    20    56    55    1
    21    81    82    2
    22    72    73    1
    23    84    83    1
    24    84    86   am
    25    15    12    1
    26    98    97    1
    27    75    73   ar
    28    75    77   ar
    29    23    21    1
    30    73    74   ar
    31    55    52    1
    32    77    78   ar
    33    97    96   ar
    34    97    95   ar
    35    21    22    1
    36    21    20    1
    37    12    11    1
    38    12    13    1
    39    96    94   ar
    40    52    53    1
    41    52    51    1
    42    53    54    2
    43    11     3   am
    44    13    14    2
    45    13    16   am
    46    74    76   ar
    47    95    93   ar
    48    94    92   ar
    49    78    76   ar
    50    16    17    1
    51    20    17    1
    52     1     2    1
    53   114   113    1
    54    17    18    1
    55     3     2    1
    56     3     4    2
    57    93    92   ar
    58    92    91    1
    59     2     5    1
    60     5     6    1
    61   113   112    1
    62   126   125    2
    63    18    24   am
    64    18    19    2
    65    91    88    1
    66    24    25    1
    67   112   111    1
    68     6     8   ar
    69     6     7   ar
    70   125   124    1
    71    88    87    1
    72    88    89    1
    73   129   128   ar
    74    25    26    1
    75     8    10   ar
    76   127   124    1
    77   127   128    1
    78   124   123    1
    79     7     9   ar
    80    27    26    2
    81   128   130   ar
    82   102   101    2
    83   111   108    1
    84    49    48    1
    85    49    50    1
    86    26    28   am
    87    89    99   am
    88    89    90    2
    89    99   100    1
    90    10     9   ar
    91    48    45    1
    92   101   100    1
    93   101   107   am
    94   108   107    1
    95   108   109    1
    96    50    44    1
    97   100   103    1
    98    28    29    1
    99   118   117    2
   100    45    44    1
   101    45    46    1
   102   109   115   am
   103   109   110    2
   104    29    32    1
   105    29    30    1
   106   115   116    1
   107    46    47    2
   108    32    33    1
   109   103   104    1
   110   117   116    1
   111   105   104    1
   112   105   106    1
   113   116   119    1
   114    30    31    2
   115    30    37   am
   116   121   120    1
   117    33    34    1
   118   119   120    1
   119    34    35    1
   120   120   122    1
   121    37    38    1
   122    35    36    1
   123    43    41    1
   124    38    41    1
   125    38    39    1
   126    41    42    1
   127    40    39    2
