@<TRIPOS>MOLECULE
tmp/1beuA00.pdb
 145 135 0 0 0
SMALL
GASTEIGER

@<TRIPOS>ATOM
      1  N         45.2620   33.1870   16.2920 N.3    22  PHE22      -0.1241
      2  CA        46.5090   32.7920   16.9330 C.3    22  PHE22       0.1605
      3  C         47.4990   33.9410   16.8550 C.2    22  PHE22       0.2264
      4  O         47.6180   34.6030   15.8220 O.2    22  PHE22      -0.2867
      5  CB        47.1280   31.5540   16.2700 C.3    22  PHE22       0.0534
      6  CG        48.5580   31.3060   16.6780 C.ar   22  PHE22      -0.0203
      7  CD1       48.8550   30.5910   17.8300 C.ar   22  PHE22      -0.0042
      8  CD2       49.6070   31.8530   15.9500 C.ar   22  PHE22      -0.0042
      9  CE1       50.1750   30.4290   18.2550 C.ar   22  PHE22      -0.0003
     10  CE2       50.9290   31.6980   16.3680 C.ar   22  PHE22      -0.0003
     11  CZ        51.2130   30.9850   17.5260 C.ar   22  PHE22      -0.0000
     12  N         44.4550   31.3050   20.7020 N.3    49  GLU49      -0.1245
     13  CA        45.5340   30.3360   20.5440 C.3    49  GLU49       0.1567
     14  C         46.7730   31.2120   20.7180 C.2    49  GLU49       0.2260
     15  O         47.0130   32.1280   19.9320 O.2    49  GLU49      -0.2867
     16  CB        45.5160   29.6830   19.1600 C.3    49  GLU49       0.0388
     17  CG        44.6740   28.4340   19.0850 C.3    49  GLU49       0.1160
     18  CD        45.0940   27.4090   20.1120 C.2    49  GLU49       0.3649
     19  OE1       46.2730   26.9910   20.0960 O.co2  49  GLU49      -0.2457
     20  OE2       44.2440   27.0320   20.9430 O.co2  49  GLU49      -0.2457
     21  N         57.9140   23.3510   13.8970 N.3    59  ALA59      -0.1231
     22  CA        56.7500   23.2930   13.0190 C.3    59  ALA59       0.1694
     23  C         56.1330   24.6630   12.7430 C.2    59  ALA59       0.2592
     24  O         54.9060   24.8010   12.7030 O.2    59  ALA59      -0.2718
     25  CB        55.7020   22.3480   13.6040 C.3    59  ALA59       0.0304
     26  N         56.9760   25.6680   12.5310 N.am   60  ASN60      -0.1974
     27  CA        56.4830   27.0130   12.2600 C.3    60  ASN60       0.1688
     28  C         56.9620   27.5880   10.9390 C.2    60  ASN60       0.2292
     29  O         58.1390   27.4820   10.5910 O.2    60  ASN60      -0.2864
     30  CB        56.8400   27.9680   13.4010 C.3    60  ASN60       0.1181
     31  CG        55.8430   27.9140   14.5370 C.2    60  ASN60       0.2629
     32  OD1       56.2030   27.6890   15.6920 O.2    60  ASN60      -0.2716
     33  ND2       54.5790   28.1350   14.2180 N.am   60  ASN60      -0.0877
     34  N         55.2040   33.1400   11.3070 N.3    64  ILE64      -0.1245
     35  CA        55.2900   32.8520   12.7300 C.3    64  ILE64       0.1561
     36  C         56.7360   32.8690   13.2160 C.2    64  ILE64       0.2260
     37  O         57.0130   33.3130   14.3320 O.2    64  ILE64      -0.2867
     38  CB        54.6150   31.5070   13.0710 C.3    64  ILE64       0.0252
     39  CG1       53.1670   31.5280   12.5750 C.3    64  ILE64       0.0019
     40  CG2       54.6320   31.2760   14.5790 C.3    64  ILE64       0.0019
     41  CD1       52.3790   30.3010   12.9210 C.3    64  ILE64       0.0001
     42  N         49.9610   27.1050   22.3030 N.3   100  LEU100     -0.1245
     43  CA        50.6000   26.3850   21.2070 C.3   100  LEU100      0.1561
     44  C         52.0280   26.3180   21.7420 C.2   100  LEU100      0.2260
     45  O         52.7130   27.3410   21.8340 O.2   100  LEU100     -0.2867
     46  CB        50.5430   27.1890   19.9040 C.3   100  LEU100      0.0270
     47  CG        50.6250   26.4050   18.5880 C.3   100  LEU100      0.0019
     48  CD1       51.9060   25.5960   18.5210 C.3   100  LEU100      0.0001
     49  CD2       49.4130   25.5050   18.4540 C.3   100  LEU100      0.0001
     50  N         55.9470   24.0260   22.3770 N.3   102  TYR102     -0.1241
     51  CA        56.9460   23.1140   21.8500 C.3   102  TYR102      0.1605
     52  C         57.3510   22.3060   23.0700 C.2   102  TYR102      0.2264
     53  O         57.3810   22.8270   24.1870 O.2   102  TYR102     -0.2867
     54  CB        58.0970   23.8430   21.1530 C.3   102  TYR102      0.0534
     55  CG        57.7320   24.1270   19.7120 C.ar  102  TYR102     -0.0201
     56  CD1       57.9380   23.1680   18.7200 C.ar  102  TYR102     -0.0009
     57  CD2       57.0690   25.2980   19.3600 C.ar  102  TYR102     -0.0009
     58  CE1       57.4820   23.3620   17.4160 C.ar  102  TYR102      0.0417
     59  CE2       56.6090   25.5070   18.0600 C.ar  102  TYR102      0.0417
     60  CZ        56.8160   24.5300   17.0950 C.ar  102  TYR102      0.1957
     61  OH        56.3330   24.7080   15.8200 O.3   102  TYR102     -0.2866
     62  N         48.4670   22.5870   23.2850 N.3   127  LEU127     -0.1245
     63  CA        48.7890   21.7700   22.1220 C.3   127  LEU127      0.1561
     64  C         50.3140   21.7680   22.0190 C.2   127  LEU127      0.2260
     65  O         50.9280   22.8180   21.8290 O.2   127  LEU127     -0.2867
     66  CB        48.1920   22.3740   20.8370 C.3   127  LEU127      0.0270
     67  CG        48.1510   21.5250   19.5470 C.3   127  LEU127      0.0019
     68  CD1       47.3340   22.2510   18.5020 C.3   127  LEU127      0.0001
     69  CD2       49.5310   21.2020   18.9950 C.3   127  LEU127      0.0001
     70  N         52.9830   21.0480   19.7960 N.3   129  ALA129     -0.1245
     71  CA        53.2060   20.8170   18.3780 C.3   129  ALA129      0.1562
     72  C         54.0820   19.6280   17.9990 C.2   129  ALA129      0.2260
     73  O         53.7580   18.9020   17.0590 O.2   129  ALA129     -0.2867
     74  CB        53.7270   22.0880   17.7290 C.3   129  ALA129      0.0290
     75  N         46.5350   17.2050   17.0160 N.3   153  ILE153     -0.1245
     76  CA        46.3690   17.5360   15.6070 C.3   153  ILE153      0.1561
     77  C         45.9490   16.3000   14.8210 C.2   153  ILE153      0.2260
     78  O         46.5720   15.2380   14.9230 O.2   153  ILE153     -0.2867
     79  CB        47.6740   18.1370   14.9870 C.3   153  ILE153      0.0252
     80  CG1       47.9300   19.5330   15.5610 C.3   153  ILE153      0.0019
     81  CG2       47.5670   18.2130   13.4620 C.3   153  ILE153      0.0019
     82  CD1       49.1520   20.2270   15.0020 C.3   153  ILE153      0.0001
     83  N         42.3420   19.6880   16.8340 N.3   175  TYR175     -0.1241
     84  CA        42.9600   20.5940   15.8740 C.3   175  TYR175      0.1605
     85  C         42.9580   19.8780   14.5300 C.2   175  TYR175      0.2264
     86  O         43.7150   18.9230   14.3370 O.2   175  TYR175     -0.2867
     87  CB        44.3930   20.9400   16.2810 C.3   175  TYR175      0.0534
     88  CG        44.9780   22.0840   15.4890 C.ar  175  TYR175     -0.0201
     89  CD1       45.3210   21.9310   14.1460 C.ar  175  TYR175     -0.0009
     90  CD2       45.1770   23.3260   16.0770 C.ar  175  TYR175     -0.0009
     91  CE1       45.8450   22.9940   13.4120 C.ar  175  TYR175      0.0417
     92  CE2       45.7000   24.3930   15.3540 C.ar  175  TYR175      0.0417
     93  CZ        46.0290   24.2200   14.0270 C.ar  175  TYR175      0.1957
     94  OH        46.5260   25.2850   13.3130 O.3   175  TYR175     -0.2866
     95  N         42.3410   24.2170   10.8530 N.3   196  GLY196     -0.1225
     96  CA        43.5190   25.0680   10.8900 C.3   196  GLY196      0.1811
     97  C         44.3830   25.1040    9.6370 C.2   196  GLY196      0.2280
     98  O         45.5460   25.5030    9.7070 O.2   196  GLY196     -0.2866
     99  N         45.6080   26.9510    6.9400 N.3   198  GLY198     -0.1210
    100  CA        45.7490   28.2940    6.3870 C.3   198  GLY198      0.1956
    101  C         44.4640   29.0660    6.1170 C.2   198  GLY198      0.2612
    102  O         44.1410   29.3680    4.9650 O.2   198  GLY198     -0.2717
    103  N         43.7440   29.4050    7.1790 N.am  199  ILE199     -0.1965
    104  CA        42.4860   30.1340    7.0750 C.3   199  ILE199      0.1727
    105  C         42.7930   31.6320    7.1150 C.2   199  ILE199      0.2616
    106  O         43.2550   32.1410    8.1350 O.2   199  ILE199     -0.2715
    107  CB        41.5490   29.7690    8.2520 C.3   199  ILE199      0.0290
    108  CG1       41.4340   28.2440    8.3960 C.3   199  ILE199      0.0022
    109  CG2       40.1780   30.3950    8.0510 C.3   199  ILE199      0.0023
    110  CD1       40.7310   27.5430    7.2480 C.3   199  ILE199      0.0001
    111  N         42.5490   32.3310    6.0100 N.am  200  SER200     -0.1950
    112  CA        42.8360   33.7610    5.9410 C.3   200  SER200      0.1924
    113  C         41.7440   34.6210    5.3280 C.2   200  SER200      0.2314
    114  O         41.9240   35.8280    5.1750 O.2   200  SER200     -0.2863
    115  CB        44.1390   34.0020    5.1710 C.3   200  SER200      0.2116
    116  OG        45.2440   33.3930    5.8200 O.3   200  SER200     -0.2180
    117  N         40.6240   28.2060   12.9180 N.3   217  ILE217     -0.1231
    118  CA        41.7020   28.9220   13.5870 C.3   217  ILE217      0.1692
    119  C         42.4820   29.6890   12.5130 C.2   217  ILE217      0.2593
    120  O         42.6840   29.1840   11.4090 O.2   217  ILE217     -0.2718
    121  CB        42.6540   27.9290   14.3470 C.3   217  ILE217      0.0266
    122  CG1       41.9130   27.2540   15.5050 C.3   217  ILE217      0.0019
    123  CG2       43.9070   28.6500   14.8640 C.3   217  ILE217      0.0020
    124  CD1       42.6870   26.1170   16.1570 C.3   217  ILE217      0.0001
    125  N         42.8750   30.9180   12.8270 N.am  218  SER218     -0.1938
    126  CA        43.6360   31.7470   11.9050 C.3   218  SER218      0.2055
    127  C         44.8790   32.2610   12.6100 C.2   218  SER218      0.2644
    128  O         44.7790   32.9770   13.6020 O.2   218  SER218     -0.2714
    129  CB        42.8000   32.9340   11.4230 C.3   218  SER218      0.2130
    130  OG        43.5520   33.7780   10.5610 O.3   218  SER218     -0.2179
    131  N         46.0450   31.9360   12.0610 N.am  219  GLY219     -0.1939
    132  CA        47.2990   32.3650   12.6610 C.3   219  GLY219      0.2014
    133  C         48.0910   33.3450   11.8190 C.2   219  GLY219      0.2640
    134  O         48.1340   34.5360   12.1180 O.2   219  GLY219     -0.2714
    135  N         48.7130   32.8370   10.7600 N.am  220  SER220     -0.1935
    136  CA        49.5130   33.6530    9.8540 C.3   220  SER220      0.2055
    137  C         48.8200   34.9290    9.4000 C.2   220  SER220      0.2642
    138  O         49.4420   35.9900    9.3340 O.2   220  SER220     -0.2714
    139  CB        49.9320   32.8340    8.6370 C.3   220  SER220      0.2130
    140  OG        50.7950   31.7860    9.0330 O.3   220  SER220     -0.2179
    141  N         47.5360   34.8190    9.0860 N.am  221  ALA221     -0.1977
    142  CA        46.7610   35.9640    8.6420 C.3   221  ALA221      0.1597
    143  C         46.7750   37.0420    9.7120 C.2   221  ALA221      0.2287
    144  O         46.9390   38.2230    9.4110 O.2   221  ALA221     -0.2864
    145  CB        45.3510   35.5440    8.3460 C.3   221  ALA221      0.0319
@<TRIPOS>BOND
     1   102   101    2
     2   115   116    1
     3   115   112    1
     4   114   113    2
     5   113   112    1
     6   112   111    1
     7   111   105   am
     8   101   100    1
     9   101   103   am
    10   100    99    1
    11   104   105    1
    12   104   103    1
    13   104   107    1
    14   105   106    2
    15   110   108    1
    16   109   107    1
    17   107   108    1
    18   145   142    1
    19   139   140    1
    20   139   136    1
    21   142   141    1
    22   142   143    1
    23   141   137   am
    24   138   137    2
    25   137   136    1
    26   144   143    2
    27    97    98    2
    28    97    96    1
    29   136   135    1
    30   130   129    1
    31    29    28    2
    32   135   133   am
    33    95    96    1
    34    28    27    1
    35    34    35    1
    36   120   119    2
    37   129   126    1
    38   133   134    2
    39   133   132    1
    40   126   127    1
    41   126   125    1
    42   131   127   am
    43   131   132    1
    44    27    26    1
    45    27    30    1
    46   119   125   am
    47   119   118    1
    48    26    23   am
    49    39    41    1
    50    39    38    1
    51   127   128    2
    52    24    23    2
    53    35    38    1
    54    35    36    1
    55    23    22    1
    56   117   118    1
    57    22    25    1
    58    22    21    1
    59    38    40    1
    60    36    37    2
    61    94    93    1
    62    30    31    1
    63    91    93   ar
    64    91    89   ar
    65    81    79    1
    66   118   121    1
    67    93    92   ar
    68    89    88   ar
    69    33    31   am
    70    86    85    2
    71   121   123    1
    72   121   122    1
    73    85    84    1
    74    31    32    2
    75    77    78    2
    76    77    76    1
    77    79    80    1
    78    79    76    1
    79    82    80    1
    80    92    90   ar
    81    88    90   ar
    82    88    87    1
    83   122   124    1
    84    76    75    1
    85    61    60    1
    86     4     3    2
    87    84    87    1
    88    84    83    1
    89     8    10   ar
    90     8     6   ar
    91     5     6    1
    92     5     2    1
    93     1     2    1
    94    10    11   ar
    95     6     7   ar
    96     3     2    1
    97    73    72    2
    98    60    58   ar
    99    60    59   ar
   100    58    56   ar
   101    11     9   ar
   102    74    71    1
   103     7     9   ar
   104    72    71    1
   105    59    57   ar
   106    71    70    1
   107    49    47    1
   108    68    67    1
   109    48    47    1
   110    47    46    1
   111    56    55   ar
   112    69    67    1
   113    17    16    1
   114    17    18    1
   115    16    13    1
   116    57    55   ar
   117    67    66    1
   118    55    54    1
   119    46    43    1
   120    15    14    2
   121    19    18   ar
   122    18    20   ar
   123    13    12    1
   124    13    14    1
   125    66    63    1
   126    54    51    1
   127    43    44    1
   128    43    42    1
   129    44    45    2
   130    65    64    2
   131    51    50    1
   132    51    52    1
   133    64    63    1
   134    63    62    1
   135    52    53    2
