@<TRIPOS>MOLECULE
tmp/1bevA00.pdb
 195 188 0 0 0
SMALL
GASTEIGER

@<TRIPOS>ATOM
      1  N        202.0080    9.7590  145.5050 N.3    84  ILE84      -0.1231
      2  CA       200.8180    8.9920  145.0860 C.3    84  ILE84       0.1692
      3  C        201.0800    7.6330  144.3830 C.2    84  ILE84       0.2592
      4  O        201.3620    7.5850  143.1950 O.2    84  ILE84      -0.2718
      5  CB       199.8960    9.8930  144.2270 C.3    84  ILE84       0.0266
      6  CG1      199.7000   11.2420  144.9360 C.3    84  ILE84       0.0019
      7  CG2      198.5500    9.2290  144.0050 C.3    84  ILE84       0.0020
      8  CD1      198.9810   12.2770  144.1300 C.3    84  ILE84       0.0001
      9  N        200.9900    6.5470  145.1530 N.am   85  ASP85      -0.1960
     10  CA       201.1910    5.1470  144.7240 C.3    85  ASP85       0.1840
     11  C        200.1430    4.3940  145.4940 C.2    85  ASP85       0.2622
     12  O        199.6140    4.8930  146.4840 O.2    85  ASP85      -0.2715
     13  CB       202.4340    4.5250  145.3750 C.3    85  ASP85       0.1450
     14  CG       203.6470    4.7010  144.5980 C.2    85  ASP85       0.3671
     15  OD1      203.8830    3.8670  143.7030 O.co2  85  ASP85      -0.2456
     16  OD2      204.3950    5.6510  144.8910 O.co2  85  ASP85      -0.2456
     17  N        200.0540    3.1090  145.1920 N.am   86  PHE86      -0.1960
     18  CA       199.1730    2.2060  145.9150 C.3    86  PHE86       0.1771
     19  C        200.1020    1.0480  146.2910 C.2    86  PHE86       0.2619
     20  O        199.6720   -0.1010  146.4100 O.2    86  PHE86      -0.2715
     21  CB       198.0410    1.6920  145.0270 C.3    86  PHE86       0.0574
     22  CG       196.9530    2.6930  144.7730 C.ar   86  PHE86      -0.0200
     23  CD1      196.9550    3.9270  145.3970 C.ar   86  PHE86      -0.0042
     24  CD2      195.9370    2.4040  143.8780 C.ar   86  PHE86      -0.0042
     25  CE1      195.9670    4.8580  145.1210 C.ar   86  PHE86      -0.0003
     26  CE2      194.9520    3.3210  143.6000 C.ar   86  PHE86      -0.0003
     27  CZ       194.9670    4.5510  144.2220 C.ar   86  PHE86      -0.0000
     28  N        201.3830    1.3680  146.4710 N.am   87  ARG87      -0.1977
     29  CA       202.3980    0.3630  146.7760 C.3    87  ARG87       0.1597
     30  C        202.9150    0.3660  148.2160 C.2    87  ARG87       0.2287
     31  O        203.7130   -0.4900  148.5880 O.2    87  ARG87      -0.2864
     32  CB       203.5800    0.5180  145.8000 C.3    87  ARG87       0.0334
     33  CG       203.2220    0.3580  144.3170 C.3    87  ARG87       0.0492
     34  CD       204.4670    0.4400  143.4660 C.3    87  ARG87       0.2205
     35  NE       204.2750   -0.0180  142.0910 N.pl3  87  ARG87      -0.0865
     36  CZ       205.1010   -0.8690  141.4850 C.cat  87  ARG87       0.5346
     37  NH1      206.1560   -1.3570  142.1440 N.pl3  87  ARG87       0.1354
     38  NH2      204.9330   -1.1670  140.2020 N.pl3  87  ARG87       0.1354
     39  N        195.4980   -5.9270  143.5490 N.3    96  MET96      -0.1245
     40  CA       195.8410   -5.5190  142.1940 C.3    96  MET96       0.1570
     41  C        196.7840   -6.5140  141.5030 C.2    96  MET96       0.2261
     42  O        196.8630   -6.5380  140.2790 O.2    96  MET96      -0.2867
     43  CB       196.4900   -4.1290  142.1950 C.3    96  MET96       0.0387
     44  CG       195.7280   -3.0230  142.9260 C.3    96  MET96       0.0595
     45  SD       196.2980   -1.3610  142.4700 S.3    96  MET96      -0.1393
     46  CE       198.0950   -1.4280  142.9370 C.3    96  MET96       0.0692
     47  N        195.0960   -2.1370  134.3570 N.3   102  MET102     -0.1245
     48  CA       193.8570   -1.7180  134.9980 C.3   102  MET102      0.1570
     49  C        193.5950   -0.2570  134.6690 C.2   102  MET102      0.2261
     50  O        194.4940    0.5830  134.7300 O.2   102  MET102     -0.2867
     51  CB       193.9280   -1.8480  136.5340 C.3   102  MET102      0.0387
     52  CG       194.1930   -3.2390  137.1200 C.3   102  MET102      0.0595
     53  SD       193.6650   -3.2930  138.8230 S.3   102  MET102     -0.1393
     54  CE       195.0350   -2.5910  139.6180 C.3   102  MET102      0.0692
     55  N        190.9230    2.7840  135.7030 N.3   104  PHE104     -0.1241
     56  CA       189.8790    3.0810  136.6910 C.3   104  PHE104      0.1605
     57  C        189.9200    4.5090  137.2130 C.2   104  PHE104      0.2264
     58  O        190.8530    5.2640  136.9210 O.2   104  PHE104     -0.2867
     59  CB       190.0140    2.1270  137.8850 C.3   104  PHE104      0.0534
     60  CG       191.3680    2.1830  138.5500 C.ar  104  PHE104     -0.0203
     61  CD1      191.7210    3.2610  139.3470 C.ar  104  PHE104     -0.0042
     62  CD2      192.2990    1.1680  138.3550 C.ar  104  PHE104     -0.0042
     63  CE1      192.9750    3.3360  139.9400 C.ar  104  PHE104     -0.0003
     64  CE2      193.5600    1.2330  138.9430 C.ar  104  PHE104     -0.0003
     65  CZ       193.8960    2.3210  139.7360 C.ar  104  PHE104     -0.0000
     66  N        189.3370    6.9750  140.8400 N.3   106  VAL106     -0.1245
     67  CA       189.5830    6.7900  142.2610 C.3   106  VAL106      0.1561
     68  C        188.8050    7.7680  143.1180 C.2   106  VAL106      0.2260
     69  O        188.5610    8.9130  142.7300 O.2   106  VAL106     -0.2867
     70  CB       191.0830    6.9450  142.6110 C.3   106  VAL106      0.0252
     71  CG1      191.3150    6.6620  144.0950 C.3   106  VAL106      0.0019
     72  CG2      191.9250    6.0240  141.7510 C.3   106  VAL106      0.0019
     73  N        189.0570    9.3160  146.8120 N.3   108  PHE108     -0.1241
     74  CA       189.8740    9.4530  148.0000 C.3   108  PHE108      0.1605
     75  C        189.0620    9.9800  149.1660 C.2   108  PHE108      0.2264
     76  O        188.1990   10.8360  148.9900 O.2   108  PHE108     -0.2867
     77  CB       191.0360   10.4170  147.7470 C.3   108  PHE108      0.0534
     78  CG       192.1200    9.8550  146.8740 C.ar  108  PHE108     -0.0203
     79  CD1      193.0580    8.9740  147.3940 C.ar  108  PHE108     -0.0042
     80  CD2      192.2270   10.2360  145.5400 C.ar  108  PHE108     -0.0042
     81  CE1      194.0820    8.4860  146.6070 C.ar  108  PHE108     -0.0003
     82  CE2      193.2520    9.7490  144.7440 C.ar  108  PHE108     -0.0003
     83  CZ       194.1820    8.8720  145.2790 C.ar  108  PHE108     -0.0000
     84  N        195.0150   20.3210  151.7570 N.3   130  VAL130     -0.1245
     85  CA       195.6340   19.2390  151.0120 C.3   130  VAL130      0.1561
     86  C        195.7890   19.8420  149.6240 C.2   130  VAL130      0.2260
     87  O        194.8290   20.3830  149.0700 O.2   130  VAL130     -0.2867
     88  CB       194.7460   18.0020  150.9140 C.3   130  VAL130      0.0252
     89  CG1      195.5610   16.8410  150.3730 C.3   130  VAL130      0.0019
     90  CG2      194.1790   17.6590  152.2660 C.3   130  VAL130      0.0019
     91  N        197.3230   19.3220  145.6520 N.3   132  TYR132     -0.1241
     92  CA       197.8570   18.3990  144.6660 C.3   132  TYR132      0.1605
     93  C        199.0380   19.0850  143.9960 C.2   132  TYR132      0.2264
     94  O        198.8980   20.1740  143.4390 O.2   132  TYR132     -0.2867
     95  CB       196.7940   18.0590  143.6350 C.3   132  TYR132      0.0534
     96  CG       197.3040   17.2550  142.4660 C.ar  132  TYR132     -0.0201
     97  CD1      198.2490   16.2420  142.6400 C.ar  132  TYR132     -0.0009
     98  CD2      196.8480   17.5140  141.1800 C.ar  132  TYR132     -0.0009
     99  CE1      198.7230   15.5100  141.5570 C.ar  132  TYR132      0.0417
    100  CE2      197.3150   16.7920  140.0910 C.ar  132  TYR132      0.0417
    101  CZ       198.2460   15.7960  140.2820 C.ar  132  TYR132      0.1957
    102  OH       198.6790   15.0860  139.1910 O.3   132  TYR132     -0.2866
    103  N        195.0870   22.2040  142.3480 N.3   154  PRO154     -0.2116
    104  CA       193.8260   22.1640  143.1040 C.3   154  PRO154      0.1372
    105  C        194.0840   21.8510  144.5960 C.2   154  PRO154      0.2244
    106  O        195.0660   21.1800  144.9440 O.2   154  PRO154     -0.2868
    107  CB       193.0300   21.0620  142.3920 C.3   154  PRO154      0.0268
    108  CG       194.0850   20.1680  141.8510 C.3   154  PRO154      0.0207
    109  CD       195.1280   21.1380  141.3320 C.3   154  PRO154      0.0892
    110  N        186.8370   13.2050  147.5950 N.3   167  PHE167     -0.1241
    111  CA       186.7340   13.6390  146.2080 C.3   167  PHE167      0.1605
    112  C        187.1010   12.5320  145.2200 C.2   167  PHE167      0.2264
    113  O        187.7360   11.5370  145.5840 O.2   167  PHE167     -0.2867
    114  CB       187.6300   14.8540  145.9820 C.3   167  PHE167      0.0534
    115  CG       189.0600   14.6210  146.3640 C.ar  167  PHE167     -0.0203
    116  CD1      189.4810   14.8300  147.6730 C.ar  167  PHE167     -0.0042
    117  CD2      189.9800   14.1700  145.4260 C.ar  167  PHE167     -0.0042
    118  CE1      190.7950   14.5950  148.0450 C.ar  167  PHE167     -0.0003
    119  CE2      191.2960   13.9300  145.7780 C.ar  167  PHE167     -0.0003
    120  CZ       191.7100   14.1390  147.0900 C.ar  167  PHE167     -0.0000
    121  N        188.6900   11.2880  141.3010 N.3   169  VAL169     -0.1245
    122  CA       189.7500   11.5810  140.3440 C.3   169  VAL169      0.1561
    123  C        189.4880   10.6870  139.1260 C.2   169  VAL169      0.2260
    124  O        189.1150    9.5270  139.2810 O.2   169  VAL169     -0.2867
    125  CB       191.1470   11.2110  140.9470 C.3   169  VAL169      0.0252
    126  CG1      192.2620   11.6640  140.0430 C.3   169  VAL169      0.0019
    127  CG2      191.3060   11.8170  142.3260 C.3   169  VAL169      0.0019
    128  N        193.8470    9.2280  135.0460 N.3   172  MET172     -0.1245
    129  CA       194.8840   10.1980  134.6790 C.3   172  MET172      0.1570
    130  C        196.1180    9.8400  133.8720 C.2   172  MET172      0.2261
    131  O        196.8350   10.7470  133.4450 O.2   172  MET172     -0.2867
    132  CB       195.4100   10.8320  135.9520 C.3   172  MET172      0.0387
    133  CG       194.3630   11.0310  137.0010 C.3   172  MET172      0.0595
    134  SD       193.8310   12.7340  136.9230 S.3   172  MET172     -0.1393
    135  CE       195.1520   13.5580  137.9710 C.3   172  MET172      0.0692
    136  N        196.6880    1.7750  133.5140 N.3   178  TYR178     -0.1227
    137  CA       197.8270    1.7210  134.4340 C.3   178  TYR178      0.1736
    138  C        198.3920    0.2910  134.3340 C.2   178  TYR178      0.2596
    139  O        197.6650   -0.6490  133.9720 O.2   178  TYR178     -0.2718
    140  CB       197.3990    1.9640  135.8850 C.3   178  TYR178      0.0548
    141  CG       196.7540    3.2960  136.1940 C.ar  178  TYR178     -0.0200
    142  CD1      197.4560    4.4880  136.0560 C.ar  178  TYR178     -0.0009
    143  CD2      195.4470    3.3560  136.6750 C.ar  178  TYR178     -0.0009
    144  CE1      196.8760    5.7100  136.3860 C.ar  178  TYR178      0.0417
    145  CE2      194.8580    4.5670  137.0050 C.ar  178  TYR178      0.0417
    146  CZ       195.5740    5.7430  136.8590 C.ar  178  TYR178      0.1957
    147  OH       194.9630    6.9460  137.1560 O.3   178  TYR178     -0.2866
    148  N        199.6870    0.1300  134.6110 N.am  179  SER179     -0.1938
    149  CA       200.3330   -1.1840  134.5840 C.3   179  SER179      0.2055
    150  C        200.7130   -1.5640  136.0230 C.2   179  SER179      0.2643
    151  O        201.3590   -0.7810  136.7250 O.2   179  SER179     -0.2714
    152  CB       201.6170   -1.1400  133.7430 C.3   179  SER179      0.2130
    153  OG       201.3920   -0.7190  132.4170 O.3   179  SER179     -0.2179
    154  N        200.2960   -2.7370  136.4910 N.am  180  THR180     -0.1950
    155  CA       200.6720   -3.1540  137.8430 C.3   180  THR180      0.1897
    156  C        202.0940   -3.6930  137.8060 C.2   180  THR180      0.2313
    157  O        202.7790   -3.7920  138.8250 O.2   180  THR180     -0.2863
    158  CB       199.7960   -4.2970  138.3760 C.3   180  THR180      0.1794
    159  OG1      199.8820   -5.4070  137.4810 O.3   180  THR180     -0.2208
    160  CG2      198.3660   -3.8620  138.5200 C.3   180  THR180      0.0378
    161  N        202.6990    6.0630  135.7740 N.3   202  ASN202     -0.1225
    162  CA       201.8060    5.7210  136.8860 C.3   202  ASN202      0.1785
    163  C        201.9310    6.6930  138.0450 C.2   202  ASN202      0.2597
    164  O        201.1250    6.6770  138.9760 O.2   202  ASN202     -0.2718
    165  CB       202.1240    4.3080  137.4160 C.3   202  ASN202      0.1169
    166  CG       201.6410    3.1900  136.4930 C.2   202  ASN202      0.2627
    167  OD1      201.0850    3.4170  135.3950 O.2   202  ASN202     -0.2716
    168  ND2      201.8570    1.9700  136.9420 N.am  202  ASN202     -0.0877
    169  N        202.9760    7.5060  138.0150 N.am  203  PHE203     -0.1962
    170  CA       203.2120    8.4730  139.0690 C.3   203  PHE203      0.1771
    171  C        202.6940    9.8410  138.6570 C.2   203  PHE203      0.2619
    172  O        203.2940   10.4990  137.8050 O.2   203  PHE203     -0.2715
    173  CB       204.7050    8.5390  139.3660 C.3   203  PHE203      0.0574
    174  CG       205.3120    7.2020  139.6610 C.ar  203  PHE203     -0.0200
    175  CD1      204.6100    6.2570  140.3950 C.ar  203  PHE203     -0.0042
    176  CD2      206.5750    6.8770  139.1920 C.ar  203  PHE203     -0.0042
    177  CE1      205.1540    5.0110  140.6530 C.ar  203  PHE203     -0.0003
    178  CE2      207.1250    5.6310  139.4490 C.ar  203  PHE203     -0.0003
    179  CZ       206.4120    4.6970  140.1800 C.ar  203  PHE203     -0.0000
    180  N        201.5810   10.2610  139.2560 N.am  204  LEU204     -0.1977
    181  CA       200.9910   11.5530  138.9390 C.3   204  LEU204      0.1596
    182  C        201.4450   12.6750  139.8640 C.2   204  LEU204      0.2287
    183  O        201.0330   13.8250  139.6980 O.2   204  LEU204     -0.2864
    184  CB       199.4610   11.4700  138.9050 C.3   204  LEU204      0.0297
    185  CG       198.8470   10.9440  137.5990 C.3   204  LEU204      0.0022
    186  CD1      199.1820   11.8820  136.4530 C.3   204  LEU204      0.0001
    187  CD2      199.3540    9.5500  137.3050 C.3   204  LEU204      0.0001
    188  N        200.8160   14.7240  147.1710 N.3   207  MET207     -0.1245
    189  CA       199.7460   15.3860  147.8830 C.3   207  MET207      0.1570
    190  C        200.4840   16.0570  149.0450 C.2   207  MET207      0.2261
    191  O        201.2000   15.3920  149.7860 O.2   207  MET207     -0.2867
    192  CB       198.7640   14.3580  148.4150 C.3   207  MET207      0.0387
    193  CG       197.3890   14.5210  147.8520 C.3   207  MET207      0.0595
    194  SD       196.4350   12.9760  147.9650 S.3   207  MET207     -0.1393
    195  CE       196.0450   12.9650  149.6910 C.3   207  MET207      0.0692
@<TRIPOS>BOND
     1   153   152    1
     2   131   130    2
     3   136   137    1
     4   152   149    1
     5   130   129    1
     6   139   138    2
     7   138   137    1
     8   138   148   am
     9    47    48    1
    10   137   140    1
    11   149   148    1
    12   149   150    1
    13    49    50    2
    14    49    48    1
    15   129   128    1
    16   129   132    1
    17    48    51    1
    18   167   166    2
    19    55    56    1
    20   161   162    1
    21   140   141    1
    22   132   133    1
    23   150   154   am
    24   150   151    2
    25   142   141   ar
    26   142   144   ar
    27   141   143   ar
    28   144   146   ar
    29   186   185    1
    30   154   155    1
    31   166   168   am
    32   166   165    1
    33    51    52    1
    34   143   145   ar
    35    56    57    1
    36    56    59    1
    37   146   145   ar
    38   146   147    1
    39   162   165    1
    40   162   163    1
    41    58    57    2
    42   134   133    1
    43   134   135    1
    44    52    53    1
    45   187   185    1
    46   159   158    1
    47   185   184    1
    48   172   171    2
    49   156   155    1
    50   156   157    2
    51   155   158    1
    52    59    60    1
    53   169   163   am
    54   169   170    1
    55   163   164    2
    56    62    60   ar
    57    62    64   ar
    58   158   160    1
    59    60    61   ar
    60   171   170    1
    61   171   180   am
    62    53    54    1
    63   184   181    1
    64   181   180    1
    65   181   182    1
    66    64    65   ar
    67   170   173    1
    68   123   124    2
    69   123   122    1
    70   102   101    1
    71   176   178   ar
    72   176   174   ar
    73    61    63   ar
    74   173   174    1
    75   178   179   ar
    76   174   175   ar
    77   183   182    2
    78    65    63   ar
    79   126   125    1
    80   100   101   ar
    81   100    98   ar
    82   179   177   ar
    83    38    36    1
    84    42    41    2
    85   101    99   ar
    86   122   125    1
    87   122   121    1
    88   175   177   ar
    89    66    67    1
    90   125   127    1
    91    98    96   ar
    92   109   108    1
    93   109   103    1
    94    36    35    2
    95    36    37    1
    96    41    40    1
    97    99    97   ar
    98    72    70    1
    99   108   107    1
   100    35    34    1
   101    40    43    1
   102    40    39    1
   103    43    44    1
   104    67    70    1
   105    67    68    1
   106   103   104    1
   107   107   104    1
   108    96    97   ar
   109    96    95    1
   110    45    44    1
   111    45    46    1
   112    70    71    1
   113    69    68    2
   114   104   105    1
   115     4     3    2
   116    94    93    2
   117    34    33    1
   118    26    24   ar
   119    26    27   ar
   120    95    92    1
   121    15    14   ar
   122    24    22   ar
   123    93    92    1
   124     7     5    1
   125     8     6    1
   126    27    25   ar
   127     5     6    1
   128     5     2    1
   129    33    32    1
   130     3     2    1
   131     3     9   am
   132   105   106    2
   133    14    16   ar
   134    14    13    1
   135    92    91    1
   136    10     9    1
   137    10    13    1
   138    10    11    1
   139    82    83   ar
   140    82    80   ar
   141    22    21    1
   142    22    23   ar
   143    21    18    1
   144     2     1    1
   145    25    23   ar
   146    17    11   am
   147    17    18    1
   148   112   113    2
   149   112   111    1
   150    83    81   ar
   151   117   119   ar
   152   117   115   ar
   153    11    12    2
   154    80    78   ar
   155   119   120   ar
   156    32    29    1
   157    18    19    1
   158   114   111    1
   159   114   115    1
   160   111   110    1
   161    19    20    2
   162    19    28   am
   163   115   116   ar
   164    28    29    1
   165    81    79   ar
   166    29    30    1
   167    73    74    1
   168    78    79   ar
   169    78    77    1
   170   120   118   ar
   171   188   189    1
   172   116   118   ar
   173    77    74    1
   174   193   194    1
   175   193   192    1
   176   189   192    1
   177   189   190    1
   178   194   195    1
   179    74    75    1
   180    30    31    2
   181    76    75    2
   182   190   191    2
   183    87    86    2
   184    86    85    1
   185    89    88    1
   186    88    85    1
   187    88    90    1
   188    85    84    1
