@<TRIPOS>MOLECULE
tmp/1bfnA00.pdb
 216 212 0 0 0
SMALL
GASTEIGER

@<TRIPOS>ATOM
      1  N         -2.9570   16.9270   22.9150 N.3    96  ASP96      -0.1239
      2  CA        -2.5350   17.8130   21.8290 C.3    96  ASP96       0.1674
      3  C         -2.6120   17.2030   20.4380 C.2    96  ASP96       0.2266
      4  O         -2.2780   16.0590   20.1060 O.2    96  ASP96      -0.2867
      5  CB        -1.0940   18.3180   22.0100 C.3    96  ASP96       0.1410
      6  CG        -0.9260   19.4940   22.9720 C.2    96  ASP96       0.3668
      7  OD1       -1.8390   20.3090   23.1420 O.co2  96  ASP96      -0.2456
      8  OD2        0.1470   19.6160   23.5480 O.co2  96  ASP96      -0.2456
      9  N          8.6560   32.1190   24.4510 N.3   181  GLU181     -0.1245
     10  CA         8.8590   33.1130   25.5030 C.3   181  GLU181      0.1567
     11  C         10.2300   33.0660   26.1620 C.2   181  GLU181      0.2260
     12  O         10.8090   32.0060   26.3580 O.2   181  GLU181     -0.2867
     13  CB         7.7860   32.9200   26.5740 C.3   181  GLU181      0.0388
     14  CG         6.4100   33.0720   25.9590 C.3   181  GLU181      0.1160
     15  CD         5.2340   32.5890   26.7860 C.2   181  GLU181      0.3649
     16  OE1        5.3880   31.7330   27.6480 O.co2 181  GLU181     -0.2457
     17  OE2        4.1390   33.0790   26.5700 O.co2 181  GLU181     -0.2457
     18  N         12.0400   32.7800   28.9960 N.3   183  ARG183     -0.1245
     19  CA        11.8640   32.2330   30.3210 C.3   183  ARG183      0.1563
     20  C         12.3460   30.7890   30.3260 C.2   183  ARG183      0.2260
     21  O         12.6940   30.1990   29.3020 O.2   183  ARG183     -0.2867
     22  CB        10.4020   32.2770   30.7140 C.3   183  ARG183      0.0307
     23  CG         9.5330   31.4510   29.7860 C.3   183  ARG183      0.0489
     24  CD         8.2480   31.3500   30.5060 C.3   183  ARG183      0.2205
     25  NE         7.2440   30.6400   29.7660 N.pl3 183  ARG183     -0.0865
     26  CZ         7.0460   29.3280   29.8890 C.cat 183  ARG183      0.5346
     27  NH1        7.7820   28.5820   30.6950 N.pl3 183  ARG183      0.1354
     28  NH2        6.0200   28.7580   29.2570 N.pl3 183  ARG183      0.1354
     29  N          6.8890   25.7630   34.4870 N.3   187  TYR187     -0.1241
     30  CA         5.5880   25.2450   34.7760 C.3   187  TYR187      0.1605
     31  C          5.0890   24.3090   33.6870 C.2   187  TYR187      0.2264
     32  O          4.1170   24.5910   32.9810 O.2   187  TYR187     -0.2867
     33  CB         4.6520   26.4370   35.0180 C.3   187  TYR187      0.0534
     34  CG         4.4710   27.5600   34.0080 C.ar  187  TYR187     -0.0201
     35  CD1        5.4480   28.5480   33.8310 C.ar  187  TYR187     -0.0009
     36  CD2        3.2730   27.6270   33.2820 C.ar  187  TYR187     -0.0009
     37  CE1        5.2200   29.6000   32.9380 C.ar  187  TYR187      0.0417
     38  CE2        3.0400   28.6740   32.3870 C.ar  187  TYR187      0.0417
     39  CZ         4.0190   29.6540   32.2240 C.ar  187  TYR187      0.1957
     40  OH         3.7770   30.7030   31.3710 O.3   187  TYR187     -0.2866
     41  N          3.2110   21.4320   32.0460 N.3   189  GLN189     -0.1245
     42  CA         2.0500   20.5820   32.1890 C.3   189  GLN189      0.1566
     43  C          2.4540   19.1460   31.9040 C.2   189  GLN189      0.2260
     44  O          1.9090   18.2380   32.5150 O.2   189  GLN189     -0.2867
     45  CB         0.9450   21.0230   31.2310 C.3   189  GLN189      0.0367
     46  CG         0.4620   22.3990   31.6890 C.3   189  GLN189      0.0905
     47  CD        -1.0390   22.5350   31.9780 C.2   189  GLN189      0.2608
     48  OE1       -1.7930   22.8850   31.0640 O.2   189  GLN189     -0.2717
     49  NE2       -1.5390   22.3050   33.2110 N.am  189  GLN189     -0.0878
     50  N          2.4880   20.0460   36.3510 N.3   193  TRP193     -0.1241
     51  CA         2.1220   21.3320   36.9190 C.3   193  TRP193      0.1605
     52  C          0.6730   21.6260   36.5880 C.2   193  TRP193      0.2264
     53  O          0.1460   21.3210   35.5170 O.2   193  TRP193     -0.2867
     54  CB         3.0070   22.4690   36.3540 C.3   193  TRP193      0.0550
     55  CG         2.5620   23.8680   36.7680 C.ar  193  TRP193      0.0003
     56  CD1        2.9570   24.4380   37.9510 C.ar  193  TRP193      0.0946
     57  CD2        1.7190   24.6840   36.0510 C.ar  193  TRP193      0.0152
     58  NE1        2.3630   25.6030   37.9840 N.ar  193  TRP193     -0.2442
     59  CE2        1.6270   25.7950   36.8870 C.ar  193  TRP193      0.0810
     60  CE3        1.0210   24.6510   34.8350 C.ar  193  TRP193      0.0012
     61  CZ2        0.8460   26.8800   36.5150 C.ar  193  TRP193      0.0191
     62  CZ3        0.2370   25.7400   34.4690 C.ar  193  TRP193      0.0001
     63  CH2        0.1530   26.8490   35.3040 C.ar  193  TRP193      0.0015
     64  N         -1.9460   25.1150   37.6700 N.3   195  PHE195     -0.1241
     65  CA        -2.0900   26.4440   38.2390 C.3   195  PHE195      0.1605
     66  C         -2.7010   26.2890   39.6280 C.2   195  PHE195      0.2264
     67  O         -3.6640   25.5200   39.7480 O.2   195  PHE195     -0.2867
     68  CB        -2.9950   27.2380   37.3120 C.3   195  PHE195      0.0534
     69  CG        -3.4280   28.6220   37.7820 C.ar  195  PHE195     -0.0203
     70  CD1       -2.6150   29.7320   37.5380 C.ar  195  PHE195     -0.0042
     71  CD2       -4.6450   28.7800   38.4590 C.ar  195  PHE195     -0.0042
     72  CE1       -3.0350   30.9900   37.9730 C.ar  195  PHE195     -0.0003
     73  CE2       -5.0370   30.0490   38.8840 C.ar  195  PHE195     -0.0003
     74  CZ        -4.2350   31.1570   38.6460 C.ar  195  PHE195     -0.0000
     75  N          6.5160   36.2320   29.0790 N.3   292  SER292     -0.1202
     76  CA         5.3580   35.5830   29.6780 C.3   292  SER292      0.2020
     77  C          4.7550   36.3760   30.8490 C.2   292  SER292      0.2619
     78  O          5.4750   36.9840   31.6350 O.2   292  SER292     -0.2717
     79  CB         5.7960   34.2110   30.1440 C.3   292  SER292      0.2103
     80  OG         4.6690   33.4360   30.4980 O.3   292  SER292     -0.2182
     81  N          3.4200   36.3900   30.9520 N.am  293  GLY293     -0.1956
     82  CA         2.6510   37.0400   32.0210 C.3   293  GLY293      0.1869
     83  C          2.3250   35.9820   33.0880 C.2   293  GLY293      0.2309
     84  O          1.4740   35.1060   32.9220 O.2   293  GLY293     -0.2863
     85  N          1.2500   35.8610   36.6050 N.3   295  HIS295     -0.1226
     86  CA         0.4780   36.6350   37.5390 C.3   295  HIS295      0.1752
     87  C          0.1260   35.9770   38.8580 C.2   295  HIS295      0.2596
     88  O         -0.2860   36.6920   39.7690 O.2   295  HIS295     -0.2718
     89  CB        -0.7820   37.0770   36.7980 C.3   295  HIS295      0.0759
     90  CG        -1.7410   35.9610   36.3760 C.ar  295  HIS295      0.0818
     91  ND1       -2.6390   35.3560   37.1440 N.ar  295  HIS295     -0.2268
     92  CD2       -1.8400   35.4020   35.1300 C.ar  295  HIS295      0.1154
     93  CE1       -3.2790   34.4600   36.4420 C.ar  295  HIS295      0.1986
     94  NE2       -2.7870   34.4960   35.2310 N.ar  295  HIS295     -0.2212
     95  N          0.2220   34.6440   38.9790 N.am  296  TRP296     -0.1976
     96  CA        -0.0720   33.9910   40.2420 C.3   296  TRP296      0.1640
     97  C          1.1330   34.2060   41.1810 C.2   296  TRP296      0.2290
     98  O          2.2750   34.2190   40.7270 O.2   296  TRP296     -0.2864
     99  CB        -0.3980   32.4930   39.9470 C.3   296  TRP296      0.0576
    100  CG         0.4850   31.6410   38.9870 C.ar  296  TRP296      0.0006
    101  CD1        1.3450   30.6850   39.4930 C.ar  296  TRP296      0.0946
    102  CD2        0.5270   31.6620   37.5950 C.ar  296  TRP296      0.0152
    103  NE1        1.9210   30.1160   38.4550 N.ar  296  TRP296     -0.2442
    104  CE2        1.4730   30.6590   37.3140 C.ar  296  TRP296      0.0810
    105  CE3       -0.0640   32.3550   36.5340 C.ar  296  TRP296      0.0012
    106  CZ2        1.8320   30.3390   35.9970 C.ar  296  TRP296      0.0191
    107  CZ3        0.2990   32.0340   35.2090 C.ar  296  TRP296      0.0001
    108  CH2        1.2390   31.0350   34.9420 C.ar  296  TRP296      0.0015
    109  N          1.7430   39.2780   27.5120 N.3   337  THR337     -0.1203
    110  CA         0.4620   38.5720   27.5000 C.3   337  THR337      0.1994
    111  C         -0.4610   38.9430   28.6980 C.2   337  THR337      0.2618
    112  O         -0.1350   39.8780   29.4380 O.2   337  THR337     -0.2717
    113  CB         0.8620   37.0800   27.4100 C.3   337  THR337      0.1784
    114  OG1       -0.3200   36.3480   27.1440 O.3   337  THR337     -0.2211
    115  CG2        1.4350   36.5380   28.6590 C.3   337  THR337      0.0376
    116  N         -1.6430   38.3160   28.9100 N.am  338  CYS338     -0.1969
    117  CA        -2.6010   38.5920   30.0030 C.3   338  CYS338      0.1712
    118  C         -3.3550   39.9030   29.9030 C.2   338  CYS338      0.2296
    119  O         -3.9920   40.3510   30.8580 O.2   338  CYS338     -0.2864
    120  CB        -1.9300   38.5840   31.3900 C.3   338  CYS338      0.0983
    121  SG        -1.2960   36.9360   31.5820 S.3   338  CYS338     -0.0798
    122  N         -7.0650   39.7850   31.1080 N.3   341  MET341     -0.1245
    123  CA        -7.4290   39.2850   32.4210 C.3   341  MET341      0.1570
    124  C         -7.7380   40.2910   33.5080 C.2   341  MET341      0.2261
    125  O         -7.1340   41.3510   33.6160 O.2   341  MET341     -0.2867
    126  CB        -6.3230   38.3870   32.9000 C.3   341  MET341      0.0387
    127  CG        -6.0020   37.2530   31.9690 C.3   341  MET341      0.0595
    128  SD        -4.9060   36.0410   32.7400 S.3   341  MET341     -0.1393
    129  CE        -5.3190   34.5180   31.9690 C.3   341  MET341      0.0692
    130  N        -11.2840   37.4570   38.1960 N.3   345  GLU345     -0.1231
    131  CA       -11.5110   36.1910   37.5300 C.3   345  GLU345      0.1699
    132  C        -10.6030   35.0820   38.0310 C.2   345  GLU345      0.2592
    133  O        -10.7600   33.9220   37.6600 O.2   345  GLU345     -0.2718
    134  CB       -11.2910   36.3810   36.0480 C.3   345  GLU345      0.0402
    135  CG       -12.2720   37.3700   35.4830 C.3   345  GLU345      0.1161
    136  CD       -11.9470   37.8750   34.0890 C.2   345  GLU345      0.3649
    137  OE1      -10.8060   37.7240   33.6450 O.co2 345  GLU345     -0.2457
    138  OE2      -12.8460   38.4390   33.4560 O.co2 345  GLU345     -0.2457
    139  N         -9.6130   35.4010   38.8520 N.am  346  GLN346     -0.1966
    140  CA        -8.6800   34.3980   39.3080 C.3   346  GLN346      0.1718
    141  C         -9.1530   33.8430   40.6330 C.2   346  GLN346      0.2458
    142  O         -9.6950   34.6000   41.4470 O.2   346  GLN346     -0.2730
    143  CB        -7.2820   35.0190   39.4450 C.3   346  GLN346      0.0407
    144  CG        -6.8610   35.8900   38.2460 C.3   346  GLN346      0.0908
    145  CD        -7.0200   35.2180   36.8960 C.2   346  GLN346      0.2608
    146  OE1       -6.7490   34.0180   36.7570 O.2   346  GLN346     -0.2717
    147  NE2       -7.4930   35.9940   35.9060 N.am  346  GLN346     -0.0878
    148  N         -8.9650   32.5370   40.9060 N.am  347  PRO347     -0.2727
    149  CA        -9.2120   31.9610   42.2370 C.3   347  PRO347      0.1402
    150  C         -8.4070   32.7170   43.2900 C.2   347  PRO347      0.2269
    151  O         -7.2360   33.0400   43.0890 O.2   347  PRO347     -0.2865
    152  CB        -8.8400   30.4990   42.0840 C.3   347  PRO347      0.0296
    153  CG        -7.9270   30.4580   40.8970 C.3   347  PRO347      0.0237
    154  CD        -8.4520   31.5400   39.9600 C.3   347  PRO347      0.0939
    155  N         -3.8470   35.8200   26.8450 N.3   377  ALA377     -0.1231
    156  CA        -3.2760   34.5240   27.2180 C.3   377  ALA377      0.1694
    157  C         -4.1870   33.3140   26.9360 C.2   377  ALA377      0.2592
    158  O         -3.7420   32.2510   26.4910 O.2   377  ALA377     -0.2718
    159  CB        -2.9190   34.5650   28.7180 C.3   377  ALA377      0.0304
    160  N         -5.4880   33.4560   27.1810 N.am  378  LEU378     -0.1966
    161  CA        -6.4470   32.3830   26.9360 C.3   378  LEU378      0.1713
    162  C         -7.5250   32.8640   25.9820 C.2   378  LEU378      0.2458
    163  O         -7.7850   34.0670   25.8610 O.2   378  LEU378     -0.2730
    164  CB        -7.0710   31.9350   28.2710 C.3   378  LEU378      0.0310
    165  CG        -6.1730   31.1760   29.2520 C.3   378  LEU378      0.0022
    166  CD1       -6.9340   31.0480   30.5570 C.3   378  LEU378      0.0001
    167  CD2       -5.7680   29.8130   28.7130 C.3   378  LEU378      0.0001
    168  N         -8.1660   31.9500   25.2480 N.am  379  PRO379     -0.2716
    169  CA        -9.2320   32.2930   24.3180 C.3   379  PRO379      0.1536
    170  C        -10.4550   32.8490   25.0000 C.2   379  PRO379      0.2598
    171  O        -10.9930   32.2710   25.9460 O.2   379  PRO379     -0.2715
    172  CB        -9.4700   31.0100   23.5760 C.3   379  PRO379      0.0310
    173  CG        -8.9790   29.9250   24.4960 C.3   379  PRO379      0.0237
    174  CD        -7.7390   30.5660   25.0540 C.3   379  PRO379      0.0939
    175  N        -10.8210   34.0410   24.5390 N.am  380  ARG380     -0.1964
    176  CA       -11.9920   34.7330   25.0590 C.3   380  ARG380      0.1729
    177  C        -12.7430   35.3850   23.9110 C.2   380  ARG380      0.2616
    178  O        -12.1670   35.9930   23.0080 O.2   380  ARG380     -0.2715
    179  CB       -11.6050   35.8230   26.0200 C.3   380  ARG380      0.0348
    180  CG       -11.0630   35.3680   27.3350 C.3   380  ARG380      0.0492
    181  CD       -12.2450   35.1350   28.2160 C.3   380  ARG380      0.2205
    182  NE       -11.7790   35.5870   29.4890 N.pl3 380  ARG380     -0.0865
    183  CZ       -12.2590   36.6230   30.1440 C.cat 380  ARG380      0.5346
    184  NH1      -13.2580   37.4020   29.7820 N.pl3 380  ARG380      0.1354
    185  NH2      -11.5210   37.0120   31.1410 N.pl3 380  ARG380      0.1354
    186  N        -14.0610   35.2690   24.0160 N.am  381  TYR381     -0.1974
    187  CA       -14.9950   35.7570   23.0240 C.3   381  TYR381      0.1639
    188  C        -15.9530   36.7890   23.6040 C.2   381  TYR381      0.2290
    189  O        -16.7830   37.3470   22.8850 O.2   381  TYR381     -0.2864
    190  CB       -15.7580   34.5550   22.4610 C.3   381  TYR381      0.0560
    191  CG       -14.8420   33.4920   21.8610 C.ar  381  TYR381     -0.0198
    192  CD1      -14.1730   33.7390   20.6680 C.ar  381  TYR381     -0.0009
    193  CD2      -14.6460   32.2800   22.5230 C.ar  381  TYR381     -0.0009
    194  CE1      -13.3050   32.7800   20.1470 C.ar  381  TYR381      0.0417
    195  CE2      -13.7860   31.3210   21.9990 C.ar  381  TYR381      0.0417
    196  CZ       -13.1110   31.5730   20.8110 C.ar  381  TYR381      0.1957
    197  OH       -12.2120   30.6450   20.3010 O.3   381  TYR381     -0.2866
    198  N         -5.4320   35.8940   20.1270 N.3   414  LEU414     -0.1231
    199  CA        -5.1230   34.5040   20.0220 C.3   414  LEU414      0.1693
    200  C         -6.3430   33.6530   19.8210 C.2   414  LEU414      0.2591
    201  O         -7.3760   33.7120   20.4740 O.2   414  LEU414     -0.2718
    202  CB        -4.3600   33.9790   21.2270 C.3   414  LEU414      0.0284
    203  CG        -2.8690   33.7080   20.8830 C.3   414  LEU414      0.0019
    204  CD1       -2.1100   34.9880   20.4910 C.3   414  LEU414      0.0001
    205  CD2       -2.2170   33.0850   22.0950 C.3   414  LEU414      0.0001
    206  N         -6.0100   33.3160   18.5650 N.am  415  ARG415     -0.1980
    207  CA        -6.5150   32.4120   17.5940 C.3   415  ARG415      0.1597
    208  C         -7.8180   32.5080   16.8830 C.2   415  ARG415      0.2287
    209  O         -8.9020   32.7200   17.4140 O.2   415  ARG415     -0.2864
    210  CB        -6.3690   31.0400   18.1890 C.3   415  ARG415      0.0334
    211  CG        -5.3470   30.4760   17.2420 C.3   415  ARG415      0.0492
    212  CD        -4.8710   29.1300   17.6610 C.3   415  ARG415      0.2205
    213  NE        -3.8000   29.3360   18.6080 N.pl3 415  ARG415     -0.0865
    214  CZ        -2.5320   29.5020   18.2150 C.cat 415  ARG415      0.5346
    215  NH1       -2.1650   29.4870   16.9340 N.pl3 415  ARG415      0.1354
    216  NH2       -1.5830   29.6700   19.1290 N.pl3 415  ARG415      0.1354
@<TRIPOS>BOND
     1   208   209    2
     2   208   207    1
     3   215   214    1
     4   211   212    1
     5   211   210    1
     6   207   210    1
     7   207   206    1
     8   212   213    1
     9   214   213    2
    10   214   216    1
    11   206   200   am
    12   200   199    1
    13   200   201    2
    14   199   198    1
    15   199   202    1
    16     4     3    2
    17   194   192   ar
    18   194   196   ar
    19   197   196    1
    20     3     2    1
    21   204   203    1
    22   192   191   ar
    23   196   195   ar
    24   203   202    1
    25   203   205    1
    26     2     5    1
    27     2     1    1
    28   191   190    1
    29   191   193   ar
    30   195   193   ar
    31     5     6    1
    32   190   187    1
    33   189   188    2
    34     6     7   ar
    35     6     8   ar
    36   178   177    2
    37   187   188    1
    38   187   186    1
    39   172   169    1
    40   172   173    1
    41   177   186   am
    42   177   176    1
    43   169   170    1
    44   169   168    1
    45     9    10    1
    46   173   174    1
    47   175   170   am
    48   175   176    1
    49   170   171    2
    50   174   168    1
    51   176   179    1
    52   168   162   am
    53    10    11    1
    54    10    13    1
    55   163   162    2
    56    14    13    1
    57    14    15    1
    58   162   161    1
    59   179   180    1
    60    11    12    2
    61   158   157    2
    62    17    15   ar
    63    15    16   ar
    64   155   156    1
    65   161   160    1
    66   161   164    1
    67   157   160   am
    68   157   156    1
    69   114   113    1
    70   156   159    1
    71   180   181    1
    72   113   110    1
    73   113   115    1
    74   110   109    1
    75   110   111    1
    76   181   182    1
    77   164   165    1
    78   111   116   am
    79   111   112    2
    80   167   165    1
    81   116   117    1
    82    18    19    1
    83    75    76    1
    84   165   166    1
    85    28    26    1
    86    21    20    2
    87   182   183    2
    88    76    79    1
    89    76    77    1
    90    25    26    2
    91    25    24    1
    92   184   183    1
    93    23    24    1
    94    23    22    1
    95    26    27    1
    96   118   117    1
    97   118   119    2
    98   117   120    1
    99   183   185    1
   100    79    80    1
   101    19    20    1
   102    19    22    1
   103    77    81   am
   104    77    78    2
   105    81    82    1
   106    48    47    2
   107   122   123    1
   108    45    46    1
   109    45    42    1
   110    40    39    1
   111   120   121    1
   112    46    47    1
   113    43    42    1
   114    43    44    2
   115   129   128    1
   116   127   128    1
   117   127   126    1
   118    47    49   am
   119    82    83    1
   120    41    42    1
   121    39    38   ar
   122    39    37   ar
   123    38    36   ar
   124   123   126    1
   125   123   124    1
   126    84    83    2
   127    37    35   ar
   128    32    31    2
   129    36    34   ar
   130   138   136   ar
   131   124   125    2
   132   137   136   ar
   133    31    30    1
   134    35    34   ar
   135    34    33    1
   136   136   135    1
   137    62    60   ar
   138    62    63   ar
   139    29    30    1
   140    30    33    1
   141    60    57   ar
   142   108   107   ar
   143   108   106   ar
   144    92    94   ar
   145    92    90   ar
   146   107   105   ar
   147    94    93   ar
   148    63    61   ar
   149   135   134    1
   150    53    52    2
   151   147   145   am
   152   106   104   ar
   153   134   131    1
   154    57    55   ar
   155    57    59   ar
   156    50    51    1
   157    54    55    1
   158    54    51    1
   159    90    89    1
   160    90    91   ar
   161    93    91   ar
   162    61    59   ar
   163   105   102   ar
   164    52    51    1
   165    85    86    1
   166   146   145    2
   167    55    56   ar
   168    89    86    1
   169    59    58   ar
   170   145   144    1
   171    68    69    1
   172    68    65    1
   173   104   102   ar
   174   104   103   ar
   175   131   132    1
   176   131   130    1
   177    70    69   ar
   178    70    72   ar
   179    86    87    1
   180   102   100   ar
   181   133   132    2
   182    64    65    1
   183    69    71   ar
   184    56    58   ar
   185    72    74   ar
   186   132   139   am
   187    65    66    1
   188   144   143    1
   189   103   101   ar
   190    71    73   ar
   191    74    73   ar
   192   139   140    1
   193    87    95   am
   194    87    88    2
   195    95    96    1
   196   100   101   ar
   197   100    99    1
   198   140   143    1
   199   140   141    1
   200    66    67    2
   201    99    96    1
   202   154   153    1
   203   154   148    1
   204    96    97    1
   205   141   148   am
   206   141   142    2
   207    98    97    2
   208   153   152    1
   209   148   149    1
   210   152   149    1
   211   149   150    1
   212   151   150    2
