@<TRIPOS>MOLECULE
tmp/1bg9A00.pdb
 157 154 0 0 0
SMALL
GASTEIGER

@<TRIPOS>ATOM
      1  N          9.5540   71.8640   22.7490 N.3     9  TRP9       -0.1241
      2  CA         9.0320   73.0120   23.4600 C.3     9  TRP9        0.1605
      3  C          8.9280   74.2520   22.6040 C.2     9  TRP9        0.2264
      4  O          8.2060   75.1980   22.8980 O.2     9  TRP9       -0.2867
      5  CB         9.9220   73.2870   24.6320 C.3     9  TRP9        0.0550
      6  CG         9.2360   74.1440   25.6640 C.ar    9  TRP9        0.0003
      7  CD1        9.7370   75.3560   26.0720 C.ar    9  TRP9        0.0946
      8  CD2        8.0700   73.8040   26.3000 C.ar    9  TRP9        0.0152
      9  NE1        8.8850   75.7860   26.9740 N.ar    9  TRP9       -0.2442
     10  CE2        7.8880   74.8960   27.1440 C.ar    9  TRP9        0.0810
     11  CE3        7.1760   72.7450   26.2820 C.ar    9  TRP9        0.0012
     12  CZ2        6.7990   74.9390   27.9930 C.ar    9  TRP9        0.0191
     13  CZ3        6.0960   72.8030   27.1350 C.ar    9  TRP9        0.0001
     14  CH2        5.9090   73.8860   27.9830 C.ar    9  TRP9        0.0015
     15  N         -0.2820   73.3550   27.2270 N.3    51  TYR51      -0.1241
     16  CA        -0.5810   72.6660   28.4660 C.3    51  TYR51       0.1605
     17  C         -1.3890   73.3850   29.5090 C.2    51  TYR51       0.2264
     18  O         -1.4520   73.0110   30.7120 O.2    51  TYR51      -0.2867
     19  CB         0.7450   72.2120   29.0260 C.3    51  TYR51       0.0534
     20  CG         1.3710   71.1620   28.1200 C.ar   51  TYR51      -0.0201
     21  CD1        1.0010   69.8490   28.2670 C.ar   51  TYR51      -0.0009
     22  CD2        2.2690   71.5340   27.1480 C.ar   51  TYR51      -0.0009
     23  CE1        1.5470   68.9200   27.4240 C.ar   51  TYR51       0.0417
     24  CE2        2.8100   70.6090   26.3070 C.ar   51  TYR51       0.0417
     25  CZ         2.4340   69.3220   26.4720 C.ar   51  TYR51       0.1957
     26  OH         2.9770   68.3800   25.6810 O.3    51  TYR51      -0.2866
     27  N         -6.4290   69.8320   34.6370 N.3    92  HIS92      -0.1241
     28  CA        -6.6680   71.2200   34.9460 C.3    92  HIS92       0.1621
     29  C         -7.1630   71.8760   33.6880 C.2    92  HIS92       0.2264
     30  O         -6.8920   71.3360   32.6120 O.2    92  HIS92      -0.2867
     31  CB        -5.3700   71.9040   35.4150 C.3    92  HIS92       0.0745
     32  CG        -4.0730   71.6750   34.6290 C.ar   92  HIS92       0.0817
     33  ND1       -3.1240   70.7320   34.7420 N.ar   92  HIS92      -0.2268
     34  CD2       -3.6820   72.5020   33.6030 C.ar   92  HIS92       0.1154
     35  CE1       -2.2090   70.9670   33.8380 C.ar   92  HIS92       0.1986
     36  NE2       -2.5470   72.0320   33.1540 N.ar   92  HIS92      -0.2212
     37  N         -2.3180   71.0460   40.2740 N.3   143  PHE143     -0.1241
     38  CA        -1.5130   71.8830   39.4130 C.3   143  PHE143      0.1605
     39  C         -1.8580   73.2570   39.9770 C.2   143  PHE143      0.2264
     40  O         -3.0730   73.5830   40.0680 O.2   143  PHE143     -0.2867
     41  CB        -1.9890   71.7500   38.0100 C.3   143  PHE143      0.0534
     42  CG        -1.0700   72.4800   37.0560 C.ar  143  PHE143     -0.0203
     43  CD1        0.1770   71.9480   36.7680 C.ar  143  PHE143     -0.0042
     44  CD2       -1.5130   73.6270   36.4370 C.ar  143  PHE143     -0.0042
     45  CE1        0.9680   72.5800   35.8390 C.ar  143  PHE143     -0.0003
     46  CE2       -0.7180   74.2520   35.5110 C.ar  143  PHE143     -0.0003
     47  CZ         0.5200   73.7310   35.2090 C.ar  143  PHE143     -0.0000
     48  N         -2.0160   60.4800   25.2230 N.3   177  ARG177     -0.1245
     49  CA        -0.9620   60.4690   26.2100 C.3   177  ARG177      0.1563
     50  C         -1.6210   61.3580   27.2430 C.2   177  ARG177      0.2260
     51  O         -2.1520   62.4140   26.9090 O.2   177  ARG177     -0.2867
     52  CB         0.3170   61.0430   25.6280 C.3   177  ARG177      0.0307
     53  CG         0.8420   62.3530   26.0550 C.3   177  ARG177      0.0489
     54  CD         2.0040   62.3630   27.0190 C.3   177  ARG177      0.2205
     55  NE         2.0210   63.7230   27.5580 N.pl3 177  ARG177     -0.0865
     56  CZ         2.9370   64.2350   28.3440 C.cat 177  ARG177      0.5346
     57  NH1        4.0890   63.6390   28.6490 N.pl3 177  ARG177      0.1354
     58  NH2        2.6620   65.4270   28.7880 N.pl3 177  ARG177      0.1354
     59  N         -1.5010   63.7940   30.0030 N.3   179  ASP179     -0.1225
     60  CA        -0.6590   64.7630   30.6700 C.3   179  ASP179      0.1805
     61  C         -0.8990   64.7380   32.1690 C.2   179  ASP179      0.2597
     62  O         -2.0510   64.7020   32.6310 O.2   179  ASP179     -0.2718
     63  CB        -1.0080   66.0980   30.1350 C.3   179  ASP179      0.1424
     64  CG        -0.0910   67.1490   30.6530 C.2   179  ASP179      0.3668
     65  OD1        1.0660   67.0430   30.3160 O.co2 179  ASP179     -0.2456
     66  OD2       -0.5150   68.0450   31.3810 O.co2 179  ASP179     -0.2456
     67  N          0.1940   64.8000   32.9140 N.am  180  PHE180     -0.1976
     68  CA         0.1630   64.9210   34.3600 C.3   180  PHE180      0.1639
     69  C         -0.8600   64.0060   34.9770 C.2   180  PHE180      0.2290
     70  O         -1.7890   64.4420   35.6690 O.2   180  PHE180     -0.2864
     71  CB        -0.1620   66.3480   34.7200 C.3   180  PHE180      0.0560
     72  CG         0.0170   66.7070   36.1770 C.ar  180  PHE180     -0.0200
     73  CD1        1.2050   66.4520   36.8140 C.ar  180  PHE180     -0.0042
     74  CD2       -1.0090   67.3000   36.8390 C.ar  180  PHE180     -0.0042
     75  CE1        1.3650   66.7870   38.1210 C.ar  180  PHE180     -0.0003
     76  CE2       -0.8310   67.6330   38.1480 C.ar  180  PHE180     -0.0003
     77  CZ         0.3410   67.3800   38.7910 C.ar  180  PHE180     -0.0000
     78  N         -0.5940   62.1060   37.3170 N.3   182  LYS182     -0.1245
     79  CA        -0.6090   62.1970   38.7820 C.3   182  LYS182      0.1561
     80  C         -1.7430   63.1450   39.2000 C.2   182  LYS182      0.2260
     81  O         -2.0640   63.3160   40.3720 O.2   182  LYS182     -0.2867
     82  CB         0.6180   62.8510   39.3990 C.3   182  LYS182      0.0271
     83  CG         1.9200   62.1360   39.2630 C.3   182  LYS182      0.0035
     84  CD         2.9700   62.7380   40.1970 C.3   182  LYS182      0.0206
     85  CE         3.4010   64.1670   39.9120 C.3   182  LYS182      0.1093
     86  NZ         4.5050   64.4570   40.8160 N.3   182  LYS182     -0.1314
     87  N          1.5950   59.9720   31.7230 N.3   204  GLU204     -0.1245
     88  CA         2.8300   60.5790   32.1630 C.3   204  GLU204      0.1567
     89  C          2.8630   60.7520   33.6630 C.2   204  GLU204      0.2260
     90  O          2.3620   61.7540   34.1920 O.2   204  GLU204     -0.2867
     91  CB         2.9840   61.9140   31.5270 C.3   204  GLU204      0.0388
     92  CG         4.2840   62.5630   31.9610 C.3   204  GLU204      0.1160
     93  CD         4.1880   64.0180   32.3490 C.2   204  GLU204      0.3649
     94  OE1        3.1030   64.5050   32.6030 O.co2 204  GLU204     -0.2457
     95  OE2        5.2170   64.6720   32.4200 O.co2 204  GLU204     -0.2457
     96  N          5.3860   61.3280   36.4710 N.3   206  TRP206     -0.1227
     97  CA         6.7960   61.6570   36.6050 C.3   206  TRP206      0.1737
     98  C          7.0860   61.9680   38.0420 C.2   206  TRP206      0.2596
     99  O          6.6030   63.0090   38.5100 O.2   206  TRP206     -0.2718
    100  CB         7.1190   62.8520   35.7460 C.3   206  TRP206      0.0564
    101  CG         8.5610   63.3130   35.7400 C.ar  206  TRP206      0.0003
    102  CD1        9.5570   62.7990   36.5160 C.ar  206  TRP206      0.0946
    103  CD2        9.0140   64.3270   34.9750 C.ar  206  TRP206      0.0152
    104  NE1       10.6170   63.4940   36.2490 N.ar  206  TRP206     -0.2442
    105  CE2       10.3260   64.4050   35.3400 C.ar  206  TRP206      0.0810
    106  CE3        8.5030   65.1800   34.0420 C.ar  206  TRP206      0.0012
    107  CZ2       11.1660   65.3280   34.7950 C.ar  206  TRP206      0.0191
    108  CZ3        9.3380   66.1180   33.4810 C.ar  206  TRP206      0.0001
    109  CH2       10.6500   66.1890   33.8530 C.ar  206  TRP206      0.0015
    110  N          7.8480   61.1260   38.7600 N.am  207  THR207     -0.1939
    111  CA         8.2470   61.4750   40.1170 C.3   207  THR207      0.2028
    112  C          9.7600   61.3870   40.2740 C.2   207  THR207      0.2642
    113  O         10.4580   60.9390   39.3730 O.2   207  THR207     -0.2714
    114  CB         7.5280   60.5650   41.1420 C.3   207  THR207      0.1808
    115  OG1        8.0720   59.2810   41.1580 O.3   207  THR207     -0.2208
    116  CG2        6.0810   60.4030   40.7590 C.3   207  THR207      0.0379
    117  N         10.3540   61.7730   41.3840 N.am  208  SER208     -0.1949
    118  CA        11.8030   61.8430   41.5040 C.3   208  SER208      0.1924
    119  C         12.3250   60.4730   41.7880 C.2   208  SER208      0.2314
    120  O         11.6170   59.5960   42.2670 O.2   208  SER208     -0.2863
    121  CB        12.2460   62.7770   42.6630 C.3   208  SER208      0.2116
    122  OG        11.3490   63.8820   42.8550 O.3   208  SER208     -0.2180
    123  N         10.0550   66.8200   25.5140 N.3   288  HIS288     -0.1226
    124  CA         9.9820   68.2860   25.5170 C.3   288  HIS288      0.1752
    125  C         10.2820   68.9590   26.8520 C.2   288  HIS288      0.2596
    126  O         10.5940   70.1320   26.9180 O.2   288  HIS288     -0.2718
    127  CB         8.5920   68.6650   24.9840 C.3   288  HIS288      0.0759
    128  CG         7.4140   68.2490   25.8220 C.ar  288  HIS288      0.0818
    129  ND1        6.9460   67.0360   26.0720 N.ar  288  HIS288     -0.2268
    130  CD2        6.6560   69.1430   26.5480 C.ar  288  HIS288      0.1154
    131  CE1        5.9430   67.1590   26.9330 C.ar  288  HIS288      0.1986
    132  NE2        5.7830   68.4250   27.2100 N.ar  288  HIS288     -0.2212
    133  N         10.1620   68.2230   27.9410 N.am  289  ASP289     -0.1974
    134  CA        10.4570   68.7240   29.2530 C.3   289  ASP289      0.1709
    135  C         11.8830   68.4100   29.6770 C.2   289  ASP289      0.2293
    136  O         12.6620   69.2970   30.0550 O.2   289  ASP289     -0.2864
    137  CB         9.5610   68.1020   30.2760 C.3   289  ASP289      0.1436
    138  CG         8.0850   68.4190   30.2160 C.2   289  ASP289      0.3671
    139  OD1        7.6890   69.4880   29.7170 O.co2 289  ASP289     -0.2456
    140  OD2        7.3490   67.5600   30.7170 O.co2 289  ASP289     -0.2456
    141  N         13.7880   73.2150   27.6420 N.3   294  GLN294     -0.1245
    142  CA        13.4770   73.2780   29.0500 C.3   294  GLN294      0.1566
    143  C         14.5810   72.6670   29.8490 C.2   294  GLN294      0.2260
    144  O         14.8330   73.1780   30.9350 O.2   294  GLN294     -0.2867
    145  CB        12.2050   72.5680   29.3270 C.3   294  GLN294      0.0367
    146  CG        11.1040   73.5120   28.9180 C.3   294  GLN294      0.0905
    147  CD         9.7580   72.9900   29.3200 C.2   294  GLN294      0.2608
    148  OE1        9.0940   73.4900   30.2390 O.2   294  GLN294     -0.2717
    149  NE2        9.3640   71.9100   28.6540 N.am  294  GLN294     -0.0878
    150  N         15.0290   69.9930   31.6710 N.3   296  MET296     -0.1245
    151  CA        14.7430   69.6660   33.0500 C.3   296  MET296      0.1570
    152  C         15.4920   68.4670   33.5870 C.2   296  MET296      0.2261
    153  O         15.7460   68.3800   34.7950 O.2   296  MET296     -0.2867
    154  CB        13.2830   69.4490   33.1950 C.3   296  MET296      0.0387
    155  CG        12.5880   70.7830   33.3250 C.3   296  MET296      0.0595
    156  SD        10.8650   70.2940   33.5070 S.3   296  MET296     -0.1393
    157  CE        10.0910   71.2040   32.2090 C.3   296  MET296      0.0692
@<TRIPOS>BOND
     1     3     4    2
     2     3     2    1
     3     1     2    1
     4     2     5    1
     5     5     6    1
     6   127   124    1
     7   127   128    1
     8    48    49    1
     9   123   124    1
    10   124   125    1
    11    52    53    1
    12    52    49    1
    13     6     7   ar
    14     6     8   ar
    15    26    25    1
    16   128   129   ar
    17   128   130   ar
    18    53    54    1
    19     7     9   ar
    20   129   131   ar
    21    49    50    1
    22    11     8   ar
    23    11    13   ar
    24     8    10   ar
    25    24    25   ar
    26    24    22   ar
    27    25    23   ar
    28   130   132   ar
    29   125   126    2
    30   125   133   am
    31    51    50    2
    32   131   132   ar
    33     9    10   ar
    34    54    55    1
    35    13    14   ar
    36    10    12   ar
    37    22    20   ar
    38    15    16    1
    39    23    21   ar
    40    55    56    2
    41   141   142    1
    42   133   134    1
    43    14    12   ar
    44    20    21   ar
    45    20    19    1
    46    56    57    1
    47    56    58    1
    48    16    19    1
    49    16    17    1
    50   149   147   am
    51   146   147    1
    52   146   145    1
    53   142   145    1
    54   142   143    1
    55   134   135    1
    56   134   137    1
    57   147   148    2
    58    17    18    2
    59   135   136    2
    60   139   138   ar
    61   143   144    2
    62    59    60    1
    63    63    64    1
    64    63    60    1
    65   138   137    1
    66   138   140   ar
    67    65    64   ar
    68    64    66   ar
    69    60    61    1
    70    91    92    1
    71    91    88    1
    72   150   151    1
    73    87    88    1
    74    92    93    1
    75    88    89    1
    76    61    62    2
    77    61    67   am
    78   157   156    1
    79    93    95   ar
    80    93    94   ar
    81    30    29    2
    82    67    68    1
    83   151   154    1
    84   151   152    1
    85    36    34   ar
    86    36    35   ar
    87   154   155    1
    88   155   156    1
    89   108   109   ar
    90   108   106   ar
    91   152   153    2
    92    34    32   ar
    93    89    90    2
    94    29    28    1
    95    35    33   ar
    96   109   107   ar
    97   106   103   ar
    98    68    71    1
    99    68    69    1
   100    32    33   ar
   101    32    31    1
   102    27    28    1
   103    71    72    1
   104   107   105   ar
   105    28    31    1
   106   103   105   ar
   107   103   101   ar
   108    69    70    2
   109    47    46   ar
   110    47    45   ar
   111   105   104   ar
   112    46    44   ar
   113   101   100    1
   114   101   102   ar
   115   100    97    1
   116    45    43   ar
   117    72    73   ar
   118    72    74   ar
   119   104   102   ar
   120    44    42   ar
   121    96    97    1
   122    97    98    1
   123    43    42   ar
   124    73    75   ar
   125    74    76   ar
   126    42    41    1
   127    78    79    1
   128    41    38    1
   129    98    99    2
   130    98   110   am
   131    75    77   ar
   132    76    77   ar
   133   110   111    1
   134    79    80    1
   135    79    82    1
   136    80    81    2
   137    83    82    1
   138    83    84    1
   139   113   112    2
   140    38    39    1
   141    38    37    1
   142    85    84    1
   143    85    86    1
   144    39    40    2
   145   111   112    1
   146   111   114    1
   147   112   117   am
   148   116   114    1
   149   114   115    1
   150   117   118    1
   151   118   119    1
   152   118   121    1
   153   119   120    2
   154   121   122    1
