@<TRIPOS>MOLECULE
tmp/1bggC00.pdb
 133 135 0 0 0
SMALL
GASTEIGER

@<TRIPOS>ATOM
      1  N         21.2100   42.9240   52.1300 N.3    19  GLN19      -0.1245
      2  CA        22.2120   43.0990   53.1710 C.3    19  GLN19       0.1566
      3  C         23.6060   43.3950   52.6580 C.2    19  GLN19       0.2260
      4  O         24.3730   44.0660   53.3350 O.2    19  GLN19      -0.2867
      5  CB        22.2340   41.8770   54.0850 C.3    19  GLN19       0.0367
      6  CG        20.9330   41.6580   54.8220 C.3    19  GLN19       0.0905
      7  CD        21.0350   40.5400   55.8200 C.2    19  GLN19       0.2608
      8  OE1       21.4400   40.7400   56.9690 O.2    19  GLN19      -0.2717
      9  NE2       20.6630   39.3520   55.3960 N.am   19  GLN19      -0.0878
     10  N         14.0860   36.7420   49.9450 N.3   120  HIS120     -0.1226
     11  CA        14.7620   37.0920   51.1690 C.3   120  HIS120      0.1752
     12  C         14.3590   38.4740   51.6840 C.2   120  HIS120      0.2596
     13  O         15.1970   39.3380   51.9530 O.2   120  HIS120     -0.2718
     14  CB        16.2690   36.9260   51.0590 C.3   120  HIS120      0.0759
     15  CG        16.9260   36.6000   52.3640 C.ar  120  HIS120      0.0818
     16  ND1       16.7200   37.3520   53.5030 N.ar  120  HIS120     -0.2268
     17  CD2       17.7690   35.6040   52.7200 C.ar  120  HIS120      0.1154
     18  CE1       17.4030   36.8310   54.5020 C.ar  120  HIS120      0.1986
     19  NE2       18.0510   35.7710   54.0540 N.ar  120  HIS120     -0.2212
     20  N         13.0400   38.6540   51.7790 N.am  121  TRP121     -0.1976
     21  CA        12.3870   39.8320   52.3470 C.3   121  TRP121      0.1640
     22  C         12.2340   41.1230   51.5550 C.2   121  TRP121      0.2290
     23  O         11.5160   42.0330   51.9880 O.2   121  TRP121     -0.2864
     24  CB        12.9960   40.1470   53.7200 C.3   121  TRP121      0.0576
     25  CG        13.2070   38.9400   54.6260 C.ar  121  TRP121      0.0006
     26  CD1       12.8230   37.6400   54.3960 C.ar  121  TRP121      0.0946
     27  CD2       13.9010   38.9300   55.8720 C.ar  121  TRP121      0.0152
     28  NE1       13.2460   36.8360   55.4180 N.ar  121  TRP121     -0.2442
     29  CE2       13.9120   37.6020   56.3370 C.ar  121  TRP121      0.0810
     30  CE3       14.5160   39.9230   56.6400 C.ar  121  TRP121      0.0012
     31  CZ2       14.5170   37.2400   57.5290 C.ar  121  TRP121      0.0191
     32  CZ3       15.1140   39.5600   57.8220 C.ar  121  TRP121      0.0001
     33  CH2       15.1130   38.2310   58.2580 C.ar  121  TRP121      0.0015
     34  N         12.8570   32.4280   52.7300 N.3   164  ASN164     -0.1225
     35  CA        13.8030   32.3780   53.8220 C.3   164  ASN164      0.1785
     36  C         13.1120   32.9630   55.0440 C.2   164  ASN164      0.2597
     37  O         12.6200   34.0940   55.0160 O.2   164  ASN164     -0.2718
     38  CB        15.0490   33.1840   53.4970 C.3   164  ASN164      0.1169
     39  CG        15.9860   33.3120   54.6880 C.2   164  ASN164      0.2627
     40  OD1       15.9740   34.3200   55.3950 O.2   164  ASN164     -0.2716
     41  ND2       16.8070   32.3000   54.9080 N.am  164  ASN164     -0.0877
     42  N         13.0100   32.1460   56.0870 N.am  165  GLU165     -0.1979
     43  CA        12.3930   32.5230   57.3590 C.3   165  GLU165      0.1602
     44  C         10.9830   33.0600   57.3160 C.2   165  GLU165      0.2287
     45  O         10.7390   34.2430   57.5820 O.2   165  GLU165     -0.2864
     46  CB        13.2920   33.4710   58.1260 C.3   165  GLU165      0.0415
     47  CG        14.6790   32.8950   58.3370 C.3   165  GLU165      0.1163
     48  CD        15.4800   33.6980   59.3190 C.2   165  GLU165      0.3649
     49  OE1       15.0990   34.8560   59.5970 O.co2 165  GLU165     -0.2457
     50  OE2       16.5010   33.1810   59.8100 O.co2 165  GLU165     -0.2457
     51  N         20.2270   29.7460   65.5560 N.3   295  TYR295     -0.1241
     52  CA        21.1630   30.6370   66.2270 C.3   295  TYR295      0.1605
     53  C         21.2260   30.4670   67.7270 C.2   295  TYR295      0.2264
     54  O         22.3080   30.4410   68.3170 O.2   295  TYR295     -0.2867
     55  CB        20.7840   32.0880   65.9640 C.3   295  TYR295      0.0534
     56  CG        21.0420   32.5230   64.5580 C.ar  295  TYR295     -0.0201
     57  CD1       22.2890   32.9890   64.1780 C.ar  295  TYR295     -0.0009
     58  CD2       20.0550   32.4280   63.5980 C.ar  295  TYR295     -0.0009
     59  CE1       22.5450   33.3370   62.8850 C.ar  295  TYR295      0.0417
     60  CE2       20.3030   32.7710   62.3110 C.ar  295  TYR295      0.0417
     61  CZ        21.5470   33.2230   61.9570 C.ar  295  TYR295      0.1957
     62  OH        21.7900   33.5250   60.6400 O.3   295  TYR295     -0.2866
     63  N         22.4080   37.2470   72.2720 N.3   325  TRP325     -0.1241
     64  CA        21.8150   35.9180   72.2510 C.3   325  TRP325      0.1605
     65  C         22.6950   34.9440   73.0080 C.2   325  TRP325      0.2264
     66  O         23.9160   34.9460   72.8430 O.2   325  TRP325     -0.2867
     67  CB        21.6420   35.4120   70.8080 C.3   325  TRP325      0.0550
     68  CG        20.8600   36.3170   69.9390 C.ar  325  TRP325      0.0003
     69  CD1       20.0460   37.3350   70.3390 C.ar  325  TRP325      0.0946
     70  CD2       20.8200   36.3060   68.5130 C.ar  325  TRP325      0.0152
     71  NE1       19.5050   37.9590   69.2540 N.ar  325  TRP325     -0.2442
     72  CE2       19.9610   37.3480   68.1140 C.ar  325  TRP325      0.0810
     73  CE3       21.4240   35.5220   67.5280 C.ar  325  TRP325      0.0012
     74  CZ2       19.6900   37.6210   66.7690 C.ar  325  TRP325      0.0191
     75  CZ3       21.1540   35.8000   66.1910 C.ar  325  TRP325      0.0001
     76  CH2       20.2970   36.8350   65.8280 C.ar  325  TRP325      0.0015
     77  N         21.7550   28.5180   57.6660 N.3   351  GLU351     -0.1245
     78  CA        22.2790   29.6440   58.4410 C.3   351  GLU351      0.1567
     79  C         22.6230   29.2520   59.8700 C.2   351  GLU351      0.2260
     80  O         21.8530   28.5570   60.5380 O.2   351  GLU351     -0.2867
     81  CB        21.2770   30.7740   58.5320 C.3   351  GLU351      0.0388
     82  CG        21.2390   31.7260   57.3670 C.3   351  GLU351      0.1160
     83  CD        20.1940   32.8020   57.5620 C.2   351  GLU351      0.3649
     84  OE1       19.9900   33.2050   58.7130 O.co2 351  GLU351     -0.2457
     85  OE2       19.5410   33.2280   56.5850 O.co2 351  GLU351     -0.2457
     86  N         26.4350   31.6820   58.7200 N.3   397  TRP397     -0.1241
     87  CA        25.7420   32.9120   58.4480 C.3   397  TRP397      0.1605
     88  C         26.7130   34.0450   58.4500 C.2   397  TRP397      0.2264
     89  O         27.2650   34.4820   59.4690 O.2   397  TRP397     -0.2867
     90  CB        24.5270   33.2570   59.2990 C.3   397  TRP397      0.0550
     91  CG        24.0710   34.6780   58.9540 C.ar  397  TRP397      0.0003
     92  CD1       24.2760   35.8100   59.7050 C.ar  397  TRP397      0.0946
     93  CD2       23.4990   35.1320   57.7030 C.ar  397  TRP397      0.0152
     94  NE1       23.8970   36.9320   58.9940 N.ar  397  TRP397     -0.2442
     95  CE2       23.4150   36.5450   57.7680 C.ar  397  TRP397      0.0810
     96  CE3       23.0530   34.4850   56.5380 C.ar  397  TRP397      0.0012
     97  CZ2       22.9060   37.3130   56.7140 C.ar  397  TRP397      0.0191
     98  CZ3       22.5430   35.2470   55.5000 C.ar  397  TRP397      0.0001
     99  CH2       22.4740   36.6450   55.5950 C.ar  397  TRP397      0.0015
    100  N         22.6400   44.4460   59.0020 N.3   404  GLU404     -0.1231
    101  CA        21.8890   43.5190   59.8430 C.3   404  GLU404      0.1699
    102  C         20.4530   43.9110   60.2430 C.2   404  GLU404      0.2592
    103  O         20.1570   44.0120   61.4310 O.2   404  GLU404     -0.2718
    104  CB        22.7480   43.2240   61.0900 C.3   404  GLU404      0.0402
    105  CG        22.1390   42.3070   62.1510 C.3   404  GLU404      0.1161
    106  CD        21.6200   40.9770   61.6040 C.2   404  GLU404      0.3649
    107  OE1       22.2240   40.4330   60.6370 O.co2 404  GLU404     -0.2457
    108  OE2       20.6060   40.4760   62.1590 O.co2 404  GLU404     -0.2457
    109  N         19.5710   44.1320   59.2650 N.am  405  TRP405     -0.1976
    110  CA        18.1590   44.4920   59.5010 C.3   405  TRP405      0.1640
    111  C         17.7950   45.0870   60.8670 C.2   405  TRP405      0.2290
    112  O         17.7730   44.3600   61.8630 O.2   405  TRP405     -0.2864
    113  CB        17.2640   43.2550   59.4120 C.3   405  TRP405      0.0576
    114  CG        17.6120   42.2330   58.4330 C.ar  405  TRP405      0.0006
    115  CD1       18.1150   41.0070   58.7000 C.ar  405  TRP405      0.0946
    116  CD2       17.3410   42.2670   57.0310 C.ar  405  TRP405      0.0152
    117  NE1       18.1570   40.2550   57.5550 N.ar  405  TRP405     -0.2442
    118  CE2       17.6900   41.0060   56.5110 C.ar  405  TRP405      0.0810
    119  CE3       16.8330   43.2360   56.1630 C.ar  405  TRP405      0.0012
    120  CZ2       17.5410   40.6900   55.1600 C.ar  405  TRP405      0.0191
    121  CZ3       16.6840   42.9190   54.8210 C.ar  405  TRP405      0.0001
    122  CH2       17.0360   41.6590   54.3360 C.ar  405  TRP405      0.0015
    123  N         28.2260   39.7700   61.8450 N.3   413  PHE413     -0.1241
    124  CA        28.0860   38.3120   61.8150 C.3   413  PHE413      0.1605
    125  C         29.0580   37.6570   60.8410 C.2   413  PHE413      0.2264
    126  O         29.1090   36.4390   60.7370 O.2   413  PHE413     -0.2867
    127  CB        26.6760   37.9110   61.3530 C.3   413  PHE413      0.0534
    128  CG        25.6340   37.9180   62.4390 C.ar  413  PHE413     -0.0203
    129  CD1       25.0330   39.1050   62.8440 C.ar  413  PHE413     -0.0042
    130  CD2       25.2180   36.7260   63.0190 C.ar  413  PHE413     -0.0042
    131  CE1       24.0220   39.0990   63.8180 C.ar  413  PHE413     -0.0003
    132  CE2       24.2190   36.7090   63.9820 C.ar  413  PHE413     -0.0003
    133  CZ        23.6170   37.9010   64.3810 C.ar  413  PHE413     -0.0000
@<TRIPOS>BOND
     1    10    11    1
     2    14    11    1
     3    14    15    1
     4    11    12    1
     5    22    23    2
     6    22    21    1
     7    12    20   am
     8    12    13    2
     9    20    21    1
    10     1     2    1
    11    21    24    1
    12    15    17   ar
    13    15    16   ar
    14     3     2    1
    15     3     4    2
    16    17    19   ar
    17    34    35    1
    18     2     5    1
    19    38    35    1
    20    38    39    1
    21    16    18   ar
    22    24    25    1
    23    35    36    1
    24    19    18   ar
    25     5     6    1
    26   122   121   ar
    27   122   120   ar
    28    26    25   ar
    29    26    28   ar
    30    25    27   ar
    31    39    41   am
    32    39    40    2
    33   121   119   ar
    34     6     7    1
    35    37    36    2
    36    36    42   am
    37   120   118   ar
    38     9     7   am
    39    28    29   ar
    40    98    99   ar
    41    98    96   ar
    42    99    97   ar
    43     7     8    2
    44    27    29   ar
    45    27    30   ar
    46    42    43    1
    47   119   116   ar
    48    29    31   ar
    49   118   116   ar
    50   118   117   ar
    51    96    93   ar
    52    85    83   ar
    53    30    32   ar
    54    97    95   ar
    55   116   114   ar
    56    44    43    1
    57    44    45    2
    58    43    46    1
    59    82    83    1
    60    82    81    1
    61    31    33   ar
    62   117   115   ar
    63    83    84   ar
    64    77    78    1
    65    93    95   ar
    66    93    91   ar
    67    95    94   ar
    68    32    33   ar
    69    46    47    1
    70    47    48    1
    71   114   115   ar
    72   114   113    1
    73    78    81    1
    74    78    79    1
    75    87    88    1
    76    87    86    1
    77    87    90    1
    78    88    89    2
    79    91    90    1
    80    91    92   ar
    81    94    92   ar
    82   100   101    1
    83   109   110    1
    84   109   102   am
    85    48    49   ar
    86    48    50   ar
    87   113   110    1
    88   110   111    1
    89   101   102    1
    90   101   104    1
    91    79    80    2
    92   102   103    2
    93   107   106   ar
    94    62    61    1
    95   126   125    2
    96   125   124    1
    97   111   112    2
    98   104   105    1
    99   127   124    1
   100   127   128    1
   101   106   105    1
   102   106   108   ar
   103   124   123    1
   104    61    60   ar
   105    61    59   ar
   106    60    58   ar
   107   128   129   ar
   108   128   130   ar
   109   129   131   ar
   110    59    57   ar
   111   130   132   ar
   112    58    56   ar
   113   131   133   ar
   114   132   133   ar
   115    57    56   ar
   116    56    55    1
   117    51    52    1
   118    76    75   ar
   119    76    74   ar
   120    55    52    1
   121    75    73   ar
   122    52    53    1
   123    74    72   ar
   124    73    70   ar
   125    53    54    2
   126    72    70   ar
   127    72    71   ar
   128    70    68   ar
   129    71    69   ar
   130    68    69   ar
   131    68    67    1
   132    67    64    1
   133    64    63    1
   134    64    65    1
   135    66    65    2
