@<TRIPOS>MOLECULE
tmp/1bgoA00.pdb
 176 170 0 0 0
SMALL
GASTEIGER

@<TRIPOS>ATOM
      1  N         26.4300    7.1010  -10.0850 N.3    19  GLN19      -0.1245
      2  CA        26.8280    8.1290  -11.0220 C.3    19  GLN19       0.1566
      3  C         26.9720    7.6160  -12.4270 C.2    19  GLN19       0.2260
      4  O         26.6750    8.3150  -13.3830 O.2    19  GLN19      -0.2867
      5  CB        28.1290    8.7820  -10.5760 C.3    19  GLN19       0.0367
      6  CG        29.3190    7.8220  -10.3600 C.3    19  GLN19       0.0905
      7  CD        30.4860    8.5100   -9.6770 C.2    19  GLN19       0.2608
      8  OE1       30.2960    9.3130   -8.7600 O.2    19  GLN19      -0.2717
      9  NE2       31.6920    8.2910  -10.1950 N.am   19  GLN19      -0.0878
     10  N         31.5110   12.0700  -14.6360 N.3    23  GLY23      -0.1225
     11  CA        32.2730   12.4380  -13.4630 C.3    23  GLY23       0.1811
     12  C         31.4200   13.3760  -12.6400 C.2    23  GLY23       0.2280
     13  O         31.7730   14.5380  -12.4840 O.2    23  GLY23      -0.2866
     14  N         30.4940   12.7620   -9.2720 N.3    25  CYS25      -0.1221
     15  CA        30.6490   12.4690   -7.8450 C.3    25  CYS25       0.1808
     16  C         30.3410   13.6890   -6.9990 C.2    25  CYS25       0.2601
     17  O         29.5380   13.6180   -6.0680 O.2    25  CYS25      -0.2717
     18  CB        32.0470   11.9380   -7.5030 C.3    25  CYS25       0.0970
     19  SG        33.5020   12.9530   -7.9640 S.3    25  CYS25      -0.0800
     20  N         31.0530   14.7780   -7.3000 N.am   26  TRP26      -0.1976
     21  CA        30.9160   16.0820   -6.6590 C.3    26  TRP26       0.1640
     22  C         29.4100   16.4430   -6.5720 C.2    26  TRP26       0.2290
     23  O         28.9060   16.7660   -5.4950 O.2    26  TRP26      -0.2864
     24  CB        31.7250   17.1560   -7.4680 C.3    26  TRP26       0.0576
     25  CG        31.2510   17.3890   -8.9620 C.ar   26  TRP26       0.0006
     26  CD1       31.6390   16.7090  -10.0890 C.ar   26  TRP26       0.0946
     27  CD2       30.3260   18.3960   -9.4230 C.ar   26  TRP26       0.0152
     28  NE1       31.0360   17.2390  -11.1990 N.ar   26  TRP26      -0.2442
     29  CE2       30.2270   18.2700  -10.8280 C.ar   26  TRP26       0.0810
     30  CE3       29.5370   19.3660   -8.7760 C.ar   26  TRP26       0.0012
     31  CZ2       29.3800   19.0740  -11.6100 C.ar   26  TRP26       0.0191
     32  CZ3       28.6720   20.1660   -9.5460 C.ar   26  TRP26       0.0001
     33  CH2       28.6040   20.0130  -10.9580 C.ar   26  TRP26       0.0015
     34  N         30.7410   27.0840  -13.3010 N.3    59  GLU59      -0.1231
     35  CA        32.0170   27.2420  -12.6760 C.3    59  GLU59       0.1699
     36  C         32.6530   25.8630  -12.6200 C.2    59  GLU59       0.2592
     37  O         33.9030   25.7430  -12.5170 O.2    59  GLU59      -0.2718
     38  CB        31.7940   27.7960  -11.2770 C.3    59  GLU59       0.0402
     39  CG        30.7750   28.9790  -11.2020 C.3    59  GLU59       0.1161
     40  CD        29.3600   28.5240  -10.7010 C.2    59  GLU59       0.3649
     41  OE1       29.1430   28.4590   -9.4400 O.co2  59  GLU59      -0.2457
     42  OE2       28.4590   28.2930  -11.5670 O.co2  59  GLU59      -0.2457
     43  N         31.8330   24.8150  -12.7360 N.am   60  ASN60      -0.1960
     44  CA        32.3940   23.4840  -12.7080 C.3    60  ASN60       0.1819
     45  C         32.5940   22.9220  -14.1080 C.2    60  ASN60       0.2621
     46  O         32.4380   23.6420  -15.0790 O.2    60  ASN60      -0.2715
     47  CB        31.5630   22.5730  -11.8150 C.3    60  ASN60       0.1195
     48  CG        31.7900   22.8440  -10.3470 C.2    60  ASN60       0.2630
     49  OD1       32.8820   23.2100   -9.9350 O.2    60  ASN60      -0.2716
     50  ND2       30.7730   22.6170   -9.5420 N.am   60  ASN60      -0.0877
     51  N         32.9630   21.6410  -14.1880 N.am   61  ASP61      -0.1971
     52  CA        33.2380   20.9660  -15.4600 C.3    61  ASP61       0.1709
     53  C         32.2490   19.8740  -15.9460 C.2    61  ASP61       0.2293
     54  O         32.5900   19.0050  -16.7740 O.2    61  ASP61      -0.2864
     55  CB        34.7020   20.4910  -15.5530 C.3    61  ASP61       0.1436
     56  CG        35.1640   20.3230  -17.0080 C.2    61  ASP61       0.3671
     57  OD1       34.5410   20.9740  -17.8770 O.co2  61  ASP61      -0.2456
     58  OD2       36.1310   19.5680  -17.2880 O.co2  61  ASP61      -0.2456
     59  N         33.0560   16.3370  -16.1810 N.3    64  GLY64      -0.1210
     60  CA        34.5000   16.3350  -16.1770 C.3    64  GLY64       0.1956
     61  C         34.9550   16.5580  -14.7400 C.2    64  GLY64       0.2612
     62  O         36.1560   16.4520  -14.4300 O.2    64  GLY64      -0.2717
     63  N         34.0130   16.9660  -13.8870 N.am   65  GLY65      -0.1942
     64  CA        34.3310   17.2060  -12.4980 C.3    65  GLY65       0.2014
     65  C         34.0280   18.5860  -11.9920 C.2    65  GLY65       0.2639
     66  O         33.6000   19.4510  -12.7240 O.2    65  GLY65      -0.2714
     67  N         34.1900   18.7750  -10.7050 N.am   66  GLY66      -0.1939
     68  CA        33.9350   20.0630  -10.1260 C.3    66  GLY66       0.2014
     69  C         34.0200   20.0460   -8.6320 C.2    66  GLY66       0.2639
     70  O         34.4190   19.0520   -8.0640 O.2    66  GLY66      -0.2714
     71  N         33.8360   21.2280   -8.0530 N.am   67  TYR67      -0.1959
     72  CA        33.8600   21.3730   -6.6200 C.3    67  TYR67       0.1771
     73  C         32.4840   21.5330   -6.0040 C.2    67  TYR67       0.2619
     74  O         31.5470   22.1080   -6.6050 O.2    67  TYR67      -0.2715
     75  CB        34.7560   22.5070   -6.1470 C.3    67  TYR67       0.0574
     76  CG        36.2170   22.3180   -6.3610 C.ar   67  TYR67      -0.0198
     77  CD1       36.8850   21.1730   -5.8650 C.ar   67  TYR67      -0.0009
     78  CD2       36.9350   23.3150   -7.0400 C.ar   67  TYR67      -0.0009
     79  CE1       38.2550   21.0210   -6.0410 C.ar   67  TYR67       0.0417
     80  CE2       38.2550   23.2100   -7.2240 C.ar   67  TYR67       0.0417
     81  CZ        38.9290   22.0680   -6.7300 C.ar   67  TYR67       0.1957
     82  OH        40.2670   22.0230   -6.9400 O.3    67  TYR67      -0.2866
     83  N         32.3810   21.0200   -4.7810 N.am   68  MET68      -0.1977
     84  CA        31.1620   21.0630   -3.9970 C.3    68  MET68       0.1605
     85  C         30.7760   22.4640   -3.5820 C.2    68  MET68       0.2287
     86  O         29.5970   22.8030   -3.6010 O.2    68  MET68      -0.2864
     87  CB        31.3340   20.1820   -2.7610 C.3    68  MET68       0.0413
     88  CG        31.2460   18.6420   -3.0410 C.3    68  MET68       0.0598
     89  SD        32.8080   17.7500   -3.4300 S.3    68  MET68      -0.1393
     90  CE        33.3810   17.5180   -1.7560 C.3    68  MET68       0.0692
     91  N         31.3070   25.1530   -5.2000 N.3    70  ASN70      -0.1240
     92  CA        30.8360   25.8410   -6.4040 C.3    70  ASN70       0.1653
     93  C         29.3440   25.5600   -6.5930 C.2    70  ASN70       0.2266
     94  O         28.5720   26.4530   -6.9620 O.2    70  ASN70      -0.2867
     95  CB        31.6260   25.3980   -7.6360 C.3    70  ASN70       0.1155
     96  CG        32.9940   26.0560   -7.7390 C.2    70  ASN70       0.2627
     97  OD1       33.4110   26.7670   -6.8360 O.2    70  ASN70      -0.2716
     98  ND2       33.6930   25.8310   -8.8300 N.am   70  ASN70      -0.0877
     99  N         35.9250   14.8850    0.3770 N.3   134  ALA134     -0.1245
    100  CA        36.6890   14.4470   -0.7940 C.3   134  ALA134      0.1562
    101  C         37.8150   13.5910   -0.2530 C.2   134  ALA134      0.2260
    102  O         38.5050   13.9760    0.6940 O.2   134  ALA134     -0.2867
    103  CB        37.2430   15.6570   -1.5840 C.3   134  ALA134      0.0290
    104  N         40.1860    7.7430   -3.4840 N.3   137  ALA137     -0.1231
    105  CA        39.4350    6.5190   -3.6780 C.3   137  ALA137      0.1694
    106  C         40.0230    5.6690   -4.8200 C.2   137  ALA137      0.2592
    107  O         39.3570    4.7690   -5.3410 O.2   137  ALA137     -0.2718
    108  CB        37.9840    6.8450   -3.9670 C.3   137  ALA137      0.0304
    109  N         41.2830    5.9230   -5.1430 N.am  138  SER138     -0.1952
    110  CA        41.9800    5.2250   -6.2090 C.3   138  SER138      0.1924
    111  C         42.5380    3.8300   -5.8780 C.2   138  SER138      0.2314
    112  O         42.7390    3.0020   -6.7460 O.2   138  SER138     -0.2863
    113  CB        43.1110    6.1020   -6.7550 C.3   138  SER138      0.2116
    114  OG        43.9410    6.6180   -5.7270 O.3   138  SER138     -0.2180
    115  N         38.3670    0.0890   -3.5670 N.3   143  GLN143     -0.1245
    116  CA        37.3450   -0.3120   -4.5320 C.3   143  GLN143      0.1566
    117  C         36.8040   -1.7200   -4.3170 C.2   143  GLN143      0.2260
    118  O         35.7040   -2.0220   -4.7490 O.2   143  GLN143     -0.2867
    119  CB        37.8870   -0.0890   -5.9470 C.3   143  GLN143      0.0367
    120  CG        38.5440    1.2490   -6.1240 C.3   143  GLN143      0.0905
    121  CD        38.6510    1.6880   -7.5770 C.2   143  GLN143      0.2608
    122  OE1       38.2470    0.9570   -8.4870 O.2   143  GLN143     -0.2717
    123  NE2       39.1620    2.8970   -7.8020 N.am  143  GLN143     -0.0878
    124  N         43.2340   13.7380   -3.8390 N.3   160  LEU160     -0.1231
    125  CA        41.7960   13.7810   -3.5680 C.3   160  LEU160      0.1693
    126  C         41.1350   13.5710   -4.9290 C.2   160  LEU160      0.2592
    127  O         41.1080   14.4790   -5.7380 O.2   160  LEU160     -0.2718
    128  CB        41.4240   15.1280   -2.9590 C.3   160  LEU160      0.0284
    129  CG        42.0870   15.4480   -1.6170 C.3   160  LEU160      0.0019
    130  CD1       41.7330   16.8110   -1.1620 C.3   160  LEU160      0.0001
    131  CD2       41.6700   14.4000   -0.5480 C.3   160  LEU160      0.0001
    132  N         40.7590   12.3300   -5.2290 N.am  161  ASN161     -0.1960
    133  CA        40.1560   11.9710   -6.5240 C.3   161  ASN161      0.1819
    134  C         38.6740   11.5690   -6.5680 C.2   161  ASN161      0.2621
    135  O         38.1710   11.2800   -7.6410 O.2   161  ASN161     -0.2715
    136  CB        41.0150   10.9010   -7.2330 C.3   161  ASN161      0.1195
    137  CG        41.3600    9.7370   -6.3430 C.2   161  ASN161      0.2630
    138  OD1       40.4910    9.1300   -5.7470 O.2   161  ASN161     -0.2716
    139  ND2       42.6310    9.3840   -6.2950 N.am  161  ASN161     -0.0877
    140  N         37.9350   11.6410   -5.4600 N.am  162  HIS162     -0.1959
    141  CA        36.5400   11.2460   -5.4920 C.3   162  HIS162      0.1787
    142  C         35.7810   11.9710   -4.3780 C.2   162  HIS162      0.2620
    143  O         36.2810   12.0630   -3.2710 O.2   162  HIS162     -0.2715
    144  CB        36.4790    9.7220   -5.2970 C.3   162  HIS162      0.0785
    145  CG        35.1010    9.1340   -5.2740 C.ar  162  HIS162      0.0821
    146  ND1       34.1160    9.5010   -6.1620 N.ar  162  HIS162     -0.2267
    147  CD2       34.5940    8.0950   -4.5640 C.ar  162  HIS162      0.1154
    148  CE1       33.0660    8.7120   -6.0040 C.ar  162  HIS162      0.1986
    149  NE2       33.3290    7.8490   -5.0410 N.ar  162  HIS162     -0.2212
    150  N         34.6240   12.5400   -4.7210 N.am  163  ALA163     -0.1977
    151  CA        33.7730   13.2630   -3.7840 C.3   163  ALA163      0.1597
    152  C         32.7420   12.3190   -3.1910 C.2   163  ALA163      0.2287
    153  O         32.0550   11.5840   -3.9190 O.2   163  ALA163     -0.2864
    154  CB        33.0910   14.4680   -4.4430 C.3   163  ALA163      0.0319
    155  N         28.3770    4.7910   -6.0150 N.3   184  TRP184     -0.1241
    156  CA        28.7250    3.6710   -6.8840 C.3   184  TRP184      0.1605
    157  C         27.6130    2.6080   -6.9630 C.2   184  TRP184      0.2264
    158  O         27.8090    1.5470   -7.5210 O.2   184  TRP184     -0.2867
    159  CB        30.1250    3.0830   -6.5230 C.3   184  TRP184      0.0550
    160  CG        31.3010    4.0070   -6.8040 C.ar  184  TRP184      0.0003
    161  CD1       31.2910    5.1800   -7.5420 C.ar  184  TRP184      0.0946
    162  CD2       32.6590    3.8310   -6.3620 C.ar  184  TRP184      0.0152
    163  NE1       32.5560    5.7410   -7.5750 N.ar  184  TRP184     -0.2442
    164  CE2       33.4160    4.9420   -6.8690 C.ar  184  TRP184      0.0810
    165  CE3       33.3170    2.8400   -5.6060 C.ar  184  TRP184      0.0012
    166  CZ2       34.7980    5.0940   -6.6440 C.ar  184  TRP184      0.0191
    167  CZ3       34.7090    2.9850   -5.3840 C.ar  184  TRP184      0.0001
    168  CH2       35.4340    4.1260   -5.9140 C.ar  184  TRP184      0.0015
    169  N         38.9920   18.4600    2.3630 N.3   209  LEU209     -0.1245
    170  CA        38.0830   19.2230    1.5110 C.3   209  LEU209      0.1561
    171  C         36.6460   19.0110    1.9340 C.2   209  LEU209      0.2260
    172  O         35.8070   18.6250    1.1220 O.2   209  LEU209     -0.2867
    173  CB        38.2600   18.8300    0.0290 C.3   209  LEU209      0.0270
    174  CG        37.7790   19.8180   -1.0430 C.3   209  LEU209      0.0019
    175  CD1       38.6470   21.0740   -1.1050 C.3   209  LEU209      0.0001
    176  CD2       37.7810   19.1300   -2.4010 C.3   209  LEU209      0.0001
@<TRIPOS>BOND
     1    57    56   ar
     2    58    56   ar
     3    56    55    1
     4    54    53    2
     5    59    60    1
     6    60    61    1
     7    53    52    1
     8    55    52    1
     9    52    51    1
    10    46    45    2
    11    61    62    2
    12    61    63   am
    13    10    11    1
    14    51    45   am
    15    45    44    1
    16    63    64    1
    17    11    12    1
    18     4     3    2
    19    34    35    1
    20    43    44    1
    21    43    36   am
    22    66    65    2
    23    44    47    1
    24    35    36    1
    25    35    38    1
    26    12    13    2
    27    36    37    2
    28    64    65    1
    29     3     2    1
    30    65    67   am
    31    47    48    1
    32    31    33   ar
    33    31    29   ar
    34    42    40   ar
    35    38    39    1
    36    39    40    1
    37    28    29   ar
    38    28    26   ar
    39     2     5    1
    40     2     1    1
    41    33    32   ar
    42    29    27   ar
    43    67    68    1
    44    40    41   ar
    45     5     6    1
    46     6     7    1
    47    48    49    2
    48    48    50   am
    49     9     7   am
    50    68    69    1
    51    26    25   ar
    52     7     8    2
    53    32    30   ar
    54    27    25   ar
    55    27    30   ar
    56    14    15    1
    57    25    24    1
    58    98    96   am
    59    69    70    2
    60    69    71   am
    61   122   121    2
    62    71    72    1
    63    19    18    1
    64    15    18    1
    65    15    16    1
    66   123   121   am
    67    96    95    1
    68    96    97    2
    69   135   134    2
    70    95    92    1
    71   121   120    1
    72   163   161   ar
    73   163   164   ar
    74   161   160   ar
    75   158   157    2
    76    24    21    1
    77    20    16   am
    78    20    21    1
    79   136   133    1
    80   136   137    1
    81    80    78   ar
    82    80    81   ar
    83    78    76   ar
    84    16    17    2
    85   157   156    1
    86    94    93    2
    87    82    81    1
    88   156   159    1
    89   156   155    1
    90   164   166   ar
    91   164   162   ar
    92   160   159    1
    93   160   162   ar
    94   113   110    1
    95   113   114    1
    96   112   111    2
    97    81    79   ar
    98    21    22    1
    99   166   168   ar
   100    72    75    1
   101    72    73    1
   102    74    73    2
   103    93    92    1
   104    22    23    2
   105   134   133    1
   106   134   140   am
   107   133   132    1
   108    92    91    1
   109   162   165   ar
   110    76    75    1
   111    76    77   ar
   112   137   139   am
   113   137   138    2
   114   110   111    1
   115   110   109    1
   116   146   148   ar
   117   146   145   ar
   118   120   119    1
   119    79    77   ar
   120    73    83   am
   121   148   149   ar
   122   119   116    1
   123   168   167   ar
   124   127   126    2
   125   165   167   ar
   126   141   140    1
   127   141   144    1
   128   141   142    1
   129   107   106    2
   130   144   145    1
   131   145   147   ar
   132   132   126   am
   133   109   106   am
   134   149   147   ar
   135   126   125    1
   136   106   105    1
   137    83    84    1
   138   118   117    2
   139   150   142   am
   140   150   151    1
   141   116   117    1
   142   116   115    1
   143   154   151    1
   144   142   143    2
   145    84    85    1
   146    84    87    1
   147   108   105    1
   148   153   152    2
   149   124   125    1
   150   151   152    1
   151   105   104    1
   152    86    85    2
   153   125   128    1
   154    89    88    1
   155    89    90    1
   156    88    87    1
   157   128   129    1
   158   176   174    1
   159   129   130    1
   160   129   131    1
   161   103   100    1
   162   175   174    1
   163   174   173    1
   164   100   101    1
   165   100    99    1
   166   101   102    2
   167   173   170    1
   168   172   171    2
   169   170   171    1
   170   170   169    1
