@<TRIPOS>MOLECULE
tmp/1bgqA00.pdb
 129 118 0 0 0
SMALL
GASTEIGER

@<TRIPOS>ATOM
      1  N         16.7970  -11.0860    0.1700 N.3    34  LEU34      -0.1245
      2  CA        17.9150  -10.2690   -0.3050 C.3    34  LEU34       0.1561
      3  C         18.4800  -10.7840   -1.6310 C.2    34  LEU34       0.2260
      4  O         18.8030   -9.9950   -2.5160 O.2    34  LEU34      -0.2867
      5  CB        19.0290  -10.2180    0.7470 C.3    34  LEU34       0.0270
      6  CG        18.9970   -9.0960    1.7940 C.3    34  LEU34       0.0019
      7  CD1       17.6350   -8.4020    1.8200 C.3    34  LEU34       0.0001
      8  CD2       19.3320   -9.6890    3.1520 C.3    34  LEU34       0.0001
      9  N         16.1240   -9.6440   -4.3770 N.3    37  ASN37      -0.1225
     10  CA        16.2550   -8.2270   -4.7450 C.3    37  ASN37       0.1785
     11  C         17.4720   -8.0660   -5.6590 C.2    37  ASN37       0.2597
     12  O         17.4540   -7.2960   -6.6300 O.2    37  ASN37      -0.2718
     13  CB        16.4870   -7.3670   -3.5020 C.3    37  ASN37       0.1169
     14  CG        15.2310   -7.1320   -2.7090 C.2    37  ASN37       0.2627
     15  OD1       14.1640   -7.6180   -3.0690 O.2    37  ASN37      -0.2716
     16  ND2       15.3500   -6.3840   -1.6120 N.am   37  ASN37      -0.0877
     17  N         18.5320   -8.7950   -5.3120 N.am   38  ALA38      -0.1979
     18  CA        19.7850   -8.7850   -6.0530 C.3    38  ALA38       0.1597
     19  C         19.5510   -9.2420   -7.4820 C.2    38  ALA38       0.2287
     20  O         20.0640   -8.6350   -8.4310 O.2    38  ALA38      -0.2864
     21  CB        20.7930   -9.7000   -5.3720 C.3    38  ALA38       0.0319
     22  N         16.6290   -9.2980   -9.1830 N.3    40  ASP40      -0.1225
     23  CA        15.7830   -8.3400   -9.8920 C.3    40  ASP40       0.1805
     24  C         16.6080   -7.1340  -10.3290 C.2    40  ASP40       0.2597
     25  O         16.4020   -6.5780  -11.4120 O.2    40  ASP40      -0.2718
     26  CB        14.6550   -7.8500   -8.9940 C.3    40  ASP40       0.1424
     27  CG        13.7690   -8.9690   -8.4850 C.2    40  ASP40       0.3668
     28  OD1       13.6950  -10.0370   -9.1320 O.co2  40  ASP40      -0.2456
     29  OD2       13.1350   -8.7650   -7.4250 O.co2  40  ASP40      -0.2456
     30  N         17.5380   -6.7270   -9.4720 N.am   41  ALA41      -0.1979
     31  CA        18.3970   -5.5900   -9.7610 C.3    41  ALA41       0.1597
     32  C         19.3170   -5.9200  -10.9250 C.2    41  ALA41       0.2287
     33  O         19.7100   -5.0290  -11.6870 O.2    41  ALA41      -0.2864
     34  CB        19.2080   -5.2340   -8.5410 C.3    41  ALA41       0.0319
     35  N         17.1950   -5.8500  -14.1360 N.3    44  LYS44      -0.1245
     36  CA        17.0130   -4.4600  -14.5170 C.3    44  LYS44       0.1561
     37  C         18.1240   -3.9380  -15.4330 C.2    44  LYS44       0.2260
     38  O         17.8470   -3.3440  -16.4770 O.2    44  LYS44      -0.2867
     39  CB        16.9270   -3.5930  -13.2530 C.3    44  LYS44       0.0271
     40  CG        15.5110   -3.1920  -12.8330 C.3    44  LYS44       0.0035
     41  CD        14.5150   -4.3380  -12.8930 C.3    44  LYS44       0.0206
     42  CE        13.1170   -3.8380  -12.5650 C.3    44  LYS44       0.1093
     43  NZ        12.4200   -4.6600  -11.5320 N.3    44  LYS44      -0.1314
     44  N         25.6100   -7.4940   -5.4940 N.3    79  ASP79      -0.1239
     45  CA        25.1250   -7.7960   -6.8360 C.3    79  ASP79       0.1674
     46  C         25.6880   -6.7060   -7.7450 C.2    79  ASP79       0.2266
     47  O         25.9560   -5.5920   -7.2890 O.2    79  ASP79      -0.2867
     48  CB        23.5850   -7.7980   -6.8890 C.3    79  ASP79       0.1410
     49  CG        22.9690   -6.4080   -6.7200 C.2    79  ASP79       0.3668
     50  OD1       23.0710   -5.5680   -7.6410 O.co2  79  ASP79      -0.2456
     51  OD2       22.3620   -6.1500   -5.6620 O.co2  79  ASP79      -0.2456
     52  N         21.6540   -2.9630  -11.3660 N.3    82  ILE82      -0.1231
     53  CA        21.4730   -1.5810  -11.7900 C.3    82  ILE82       0.1692
     54  C         21.9420   -0.5090  -10.8070 C.2    82  ILE82       0.2593
     55  O         22.2590    0.6080  -11.2200 O.2    82  ILE82      -0.2718
     56  CB        19.9900   -1.3290  -12.1620 C.3    82  ILE82       0.0266
     57  CG1       19.8320    0.0430  -12.8150 C.3    82  ILE82       0.0019
     58  CG2       19.1100   -1.4730  -10.9420 C.3    82  ILE82       0.0020
     59  CD1       18.7090    0.0870  -13.8350 C.3    82  ILE82       0.0001
     60  N         21.9960   -0.8420   -9.5190 N.am   83  GLY83      -0.1942
     61  CA        22.4320    0.1240   -8.5220 C.3    83  GLY83       0.2014
     62  C         21.4300    1.2430   -8.3010 C.2    83  GLY83       0.2638
     63  O         20.4340    1.3510   -9.0330 O.2    83  GLY83      -0.2714
     64  N         21.6920    2.0790   -7.2960 N.am   84  MET84      -0.1976
     65  CA        20.8100    3.1950   -6.9690 C.3    84  MET84       0.1605
     66  C         21.5570    4.5160   -6.7980 C.2    84  MET84       0.2287
     67  O         22.6840    4.5480   -6.3190 O.2    84  MET84      -0.2864
     68  CB        20.0350    2.9050   -5.6770 C.3    84  MET84       0.0413
     69  CG        19.0450    1.7400   -5.7480 C.3    84  MET84       0.0598
     70  SD        18.3550    1.3690   -4.1200 S.3    84  MET84      -0.1393
     71  CE        19.5800    0.1740   -3.5230 C.3    84  MET84       0.0692
     72  N         17.4870    7.8120   -5.3360 N.3    88  GLU88      -0.1245
     73  CA        16.8030    6.5210   -5.2680 C.3    88  GLU88       0.1567
     74  C         16.9470    5.8260   -3.9150 C.2    88  GLU88       0.2260
     75  O         16.0270    5.1480   -3.4630 O.2    88  GLU88      -0.2867
     76  CB        17.3250    5.5910   -6.3600 C.3    88  GLU88       0.0388
     77  CG        17.3400    6.2160   -7.7310 C.3    88  GLU88       0.1160
     78  CD        17.5770    5.2050   -8.8330 C.2    88  GLU88       0.3649
     79  OE1       18.7460    4.8340   -9.0730 O.co2  88  GLU88      -0.2457
     80  OE2       16.5900    4.7840   -9.4670 O.co2  88  GLU88      -0.2457
     81  N         13.5600    4.9280   -2.4140 N.3    92  ASN92      -0.1225
     82  CA        13.3270    3.5010   -2.2880 C.3    92  ASN92       0.1785
     83  C         13.4590    2.9030   -0.9080 C.2    92  ASN92       0.2597
     84  O         12.6790    2.0310   -0.5360 O.2    92  ASN92      -0.2718
     85  CB        14.2750    2.7440   -3.2160 C.3    92  ASN92       0.1169
     86  CG        13.9520    2.9490   -4.6820 C.2    92  ASN92       0.2627
     87  OD1       14.5720    2.3340   -5.5480 O.2    92  ASN92      -0.2716
     88  ND2       12.9820    3.8160   -4.9690 N.am   92  ASN92      -0.0877
     89  N         14.4480    3.3520   -0.1500 N.am   93  LEU93      -0.1980
     90  CA        14.6730    2.7760    1.1670 C.3    93  LEU93       0.1596
     91  C         14.0080    3.4190    2.3870 C.2    93  LEU93       0.2287
     92  O         14.0220    2.8250    3.4650 O.2    93  LEU93      -0.2864
     93  CB        16.1850    2.6370    1.4050 C.3    93  LEU93       0.0297
     94  CG        16.9260    1.7210    0.4170 C.3    93  LEU93       0.0022
     95  CD1       18.3720    1.5620    0.8290 C.3    93  LEU93       0.0001
     96  CD2       16.2600    0.3730    0.3770 C.3    93  LEU93       0.0001
     97  N         13.1100   -6.4190    1.6920 N.3   124  PHE124     -0.1241
     98  CA        14.3580   -5.8140    2.1340 C.3   124  PHE124      0.1605
     99  C         14.3930   -5.6700    3.6370 C.2   124  PHE124      0.2264
    100  O         15.4120   -5.9410    4.2630 O.2   124  PHE124     -0.2867
    101  CB        14.5350   -4.4330    1.4990 C.3   124  PHE124      0.0534
    102  CG        15.5240   -3.5460    2.2120 C.ar  124  PHE124     -0.0203
    103  CD1       16.8910   -3.7180    2.0330 C.ar  124  PHE124     -0.0042
    104  CD2       15.0880   -2.4990    3.0060 C.ar  124  PHE124     -0.0042
    105  CE1       17.8120   -2.8600    2.6210 C.ar  124  PHE124     -0.0003
    106  CE2       16.0030   -1.6330    3.6050 C.ar  124  PHE124     -0.0003
    107  CZ        17.3690   -1.8170    3.4070 C.ar  124  PHE124     -0.0000
    108  N         23.6730    0.1930    3.1810 N.3   136  VAL136     -0.1245
    109  CA        23.4130   -0.1510    1.7980 C.3   136  VAL136      0.1561
    110  C         24.3480    0.7250    0.9840 C.2   136  VAL136      0.2260
    111  O         24.1250    1.9310    0.8660 O.2   136  VAL136     -0.2867
    112  CB        21.9540    0.1540    1.3910 C.3   136  VAL136      0.0252
    113  CG1       21.7680   -0.1140   -0.0880 C.3   136  VAL136      0.0019
    114  CG2       20.9950   -0.6920    2.2130 C.3   136  VAL136      0.0019
    115  N         25.0940   -2.8980   -5.8180 N.3   171  THR171     -0.1218
    116  CA        24.8150   -2.5940   -4.4250 C.3   171  THR171      0.1862
    117  C         25.4130   -3.6130   -3.4750 C.2   171  THR171      0.2287
    118  O         25.5520   -4.7870   -3.8100 O.2   171  THR171     -0.2866
    119  CB        23.3010   -2.5690   -4.1610 C.3   171  THR171      0.1770
    120  OG1       22.6790   -1.6490   -5.0600 O.3   171  THR171     -0.2211
    121  CG2       23.0100   -2.1730   -2.7190 C.3   171  THR171      0.0375
    122  N         24.9110   -4.9350    0.5030 N.3   173  LEU173     -0.1245
    123  CA        24.0830   -4.8560    1.6860 C.3   173  LEU173      0.1561
    124  C         24.9820   -5.3570    2.8050 C.2   173  LEU173      0.2260
    125  O         25.2710   -6.5500    2.9060 O.2   173  LEU173     -0.2867
    126  CB        22.8440   -5.7360    1.5440 C.3   173  LEU173      0.0270
    127  CG        21.5530   -4.9330    1.3610 C.3   173  LEU173      0.0019
    128  CD1       21.5920   -4.2560    0.0030 C.3   173  LEU173      0.0001
    129  CD2       20.3360   -5.8370    1.4710 C.3   173  LEU173      0.0001
@<TRIPOS>BOND
     1    38    37    2
     2    37    36    1
     3    36    35    1
     4    36    39    1
     5    59    57    1
     6    39    40    1
     7    41    40    1
     8    41    42    1
     9    57    56    1
    10    42    43    1
    11    56    53    1
    12    56    58    1
    13    53    52    1
    14    53    54    1
    15    33    32    2
    16    25    24    2
    17    55    54    2
    18    32    31    1
    19    54    60   am
    20    24    23    1
    21    24    30   am
    22    23    22    1
    23    23    26    1
    24    31    30    1
    25    31    34    1
    26    60    61    1
    27    80    78   ar
    28    28    27   ar
    29    79    78   ar
    30    63    62    2
    31    26    27    1
    32    78    77    1
    33    61    62    1
    34    27    29   ar
    35    20    19    2
    36    62    64   am
    37    46    47    2
    38    46    45    1
    39    77    76    1
    40    50    49   ar
    41    19    18    1
    42    64    65    1
    43    65    66    1
    44    65    68    1
    45    48    45    1
    46    48    49    1
    47    45    44    1
    48    66    67    2
    49    49    51   ar
    50    12    11    2
    51    76    73    1
    52    18    21    1
    53    18    17    1
    54   115   116    1
    55    69    68    1
    56    69    70    1
    57    11    17   am
    58    11    10    1
    59    87    86    2
    60    72    73    1
    61    73    74    1
    62   120   119    1
    63    88    86   am
    64    10     9    1
    65    10    13    1
    66    86    85    1
    67   116   119    1
    68   116   117    1
    69   119   121    1
    70    70    71    1
    71    74    75    2
    72   118   117    2
    73    13    14    1
    74    85    82    1
    75    15    14    2
    76    14    16   am
    77     4     3    2
    78    81    82    1
    79    82    83    1
    80     3     2    1
    81    83    84    2
    82    83    89   am
    83     2     1    1
    84     2     5    1
    85    89    90    1
    86   113   112    1
    87   128   127    1
    88    96    94    1
    89    94    95    1
    90    94    93    1
    91   122   123    1
    92     5     6    1
    93   111   110    2
    94   110   109    1
    95    90    93    1
    96    90    91    1
    97   127   129    1
    98   127   126    1
    99   112   109    1
   100   112   114    1
   101   101    98    1
   102   101   102    1
   103   126   123    1
   104   123   124    1
   105    97    98    1
   106     6     7    1
   107     6     8    1
   108   109   108    1
   109   103   102   ar
   110   103   105   ar
   111    98    99    1
   112   102   104   ar
   113    91    92    2
   114   105   107   ar
   115   124   125    2
   116   104   106   ar
   117   107   106   ar
   118    99   100    2
