@<TRIPOS>MOLECULE
tmp/1bgvA00.pdb
 105 95 0 0 0
SMALL
GASTEIGER

@<TRIPOS>ATOM
      1  N         -8.0370   14.8540   15.0910 N.3    89  LYS89      -0.1231
      2  CA        -9.0480   14.3140   15.9760 C.3    89  LYS89       0.1693
      3  C        -10.1770   15.3190   16.0270 C.2    89  LYS89       0.2593
      4  O         -9.9460   16.5230   16.1340 O.2    89  LYS89      -0.2718
      5  CB        -8.4440   14.2020   17.3680 C.3    89  LYS89       0.0285
      6  CG        -9.3870   13.5660   18.4800 C.3    89  LYS89       0.0035
      7  CD        -9.3880   11.9700   18.3300 C.3    89  LYS89       0.0206
      8  CE       -10.5230   11.2030   19.1230 C.3    89  LYS89       0.1093
      9  NZ       -11.8190   11.4260   18.3640 N.3    89  LYS89      -0.1314
     10  N        -11.4110   14.8560   16.0090 N.am   90  GLY90      -0.1942
     11  CA       -12.5790   15.7950   16.1510 C.3    90  GLY90       0.2014
     12  C        -13.8720   15.1170   15.6780 C.2    90  GLY90       0.2639
     13  O        -13.8050   14.2250   14.8300 O.2    90  GLY90      -0.2714
     14  N        -15.0230   15.5970   16.1770 N.am   91  GLY91      -0.1954
     15  CA       -16.3260   14.9820   15.8550 C.3    91  GLY91       0.1869
     16  C        -16.8900   15.1880   14.4750 C.2    91  GLY91       0.2309
     17  O        -16.2280   15.8200   13.6200 O.2    91  GLY91      -0.2863
     18  N        -11.0810   23.0260   17.7320 N.3   110  GLN110     -0.1245
     19  CA       -10.7800   21.6500   18.1960 C.3   110  GLN110      0.1566
     20  C         -9.3080   21.4370   18.4310 C.2   110  GLN110      0.2260
     21  O         -8.9220   20.7650   19.3700 O.2   110  GLN110     -0.2867
     22  CB       -11.2840   20.6170   17.1660 C.3   110  GLN110      0.0367
     23  CG       -11.2650   19.1210   17.7090 C.3   110  GLN110      0.0905
     24  CD       -12.4210   18.8890   18.6290 C.2   110  GLN110      0.2608
     25  OE1      -13.4230   19.5500   18.4590 O.2   110  GLN110     -0.2717
     26  NE2      -12.2090   18.1910   19.7230 N.am  110  GLN110     -0.0878
     27  N         -8.5250   22.8970   21.8040 N.3   113  LYS113     -0.1245
     28  CA        -9.1250   22.1080   22.8740 C.3   113  LYS113      0.1561
     29  C         -8.2770   20.8280   23.0670 C.2   113  LYS113      0.2260
     30  O         -7.9320   20.4200   24.1840 O.2   113  LYS113     -0.2867
     31  CB       -10.6160   21.7110   22.5020 C.3   113  LYS113      0.0271
     32  CG       -11.1470   20.7080   23.4900 C.3   113  LYS113      0.0035
     33  CD       -12.6290   20.5950   23.6430 C.3   113  LYS113      0.0206
     34  CE       -13.3550   20.8920   22.4270 C.3   113  LYS113      0.1093
     35  NZ       -14.6150   20.1230   22.4300 N.3   113  LYS113     -0.1314
     36  N        -12.4240   18.5440   12.1550 N.3   125  LYS125     -0.1245
     37  CA       -13.9040   18.4910   12.2810 C.3   125  LYS125      0.1561
     38  C        -14.4410   18.0290   10.9680 C.2   125  LYS125      0.2260
     39  O        -13.8650   18.2660    9.9170 O.2   125  LYS125     -0.2867
     40  CB       -14.5530   19.8570   12.5810 C.3   125  LYS125      0.0271
     41  CG       -15.9420   19.6950   13.1740 C.3   125  LYS125      0.0035
     42  CD       -15.7700   19.3420   14.6520 C.3   125  LYS125      0.0206
     43  CE       -17.1180   19.0940   15.3700 C.3   125  LYS125      0.1093
     44  NZ       -16.7790   18.9730   16.8450 N.3   125  LYS125     -0.1314
     45  N        -15.3220   11.1320   15.5570 N.3   163  ALA163     -0.1231
     46  CA       -16.1070   10.7440   16.7270 C.3   163  ALA163      0.1694
     47  C        -17.4410   11.4550   16.5130 C.2   163  ALA163      0.2593
     48  O        -17.6800   12.0170   15.4200 O.2   163  ALA163     -0.2718
     49  CB       -15.3840   11.2920   17.9730 C.3   163  ALA163      0.0304
     50  N        -18.3420   11.3390   17.4880 N.am  164  GLY164     -0.1942
     51  CA       -19.6630   11.9800   17.3800 C.3   164  GLY164      0.2014
     52  C        -19.7310   13.5190   17.6840 C.2   164  GLY164      0.2638
     53  O        -18.7440   14.1470   18.1190 O.2   164  GLY164     -0.2714
     54  N        -20.8800   14.1290   17.3820 N.am  165  ASP165     -0.1971
     55  CA       -21.1820   15.5760   17.5900 C.3   165  ASP165      0.1709
     56  C        -22.6830   15.7500   17.3570 C.2   165  ASP165      0.2293
     57  O        -23.3910   14.7600   17.3300 O.2   165  ASP165     -0.2864
     58  CB       -20.4530   16.4640   16.5660 C.3   165  ASP165      0.1436
     59  CG       -20.1570   17.8540   17.1380 C.2   165  ASP165      0.3671
     60  OD1      -19.2780   17.9580   18.0360 O.co2 165  ASP165     -0.2456
     61  OD2      -20.7330   18.8320   16.6250 O.co2 165  ASP165     -0.2456
     62  N        -17.7320    6.8550   29.1790 N.3   205  ARG205     -0.1245
     63  CA       -17.9410    7.6340   27.9610 C.3   205  ARG205      0.1563
     64  C        -19.1620    8.5920   28.0780 C.2   205  ARG205      0.2260
     65  O        -19.0580    9.7890   27.9170 O.2   205  ARG205     -0.2867
     66  CB       -18.1280    6.6580   26.7970 C.3   205  ARG205      0.0307
     67  CG       -19.0540    7.1760   25.6390 C.3   205  ARG205      0.0489
     68  CD       -18.4780    8.4450   25.1000 C.3   205  ARG205      0.2205
     69  NE       -17.1060    8.1810   24.6800 N.pl3 205  ARG205     -0.0865
     70  CZ       -16.1900    9.0820   24.3130 C.cat 205  ARG205      0.5346
     71  NH1      -16.3580   10.4000   24.4590 N.pl3 205  ARG205      0.1354
     72  NH2      -15.0380    8.6390   23.8210 N.pl3 205  ARG205      0.1354
     73  N        -20.7970   23.9090   23.5220 N.3   347  ASN347     -0.1240
     74  CA       -19.9690   24.7050   22.6020 C.3   347  ASN347      0.1653
     75  C        -20.5480   26.0660   22.1630 C.2   347  ASN347      0.2266
     76  O        -21.6570   26.1090   21.6280 O.2   347  ASN347     -0.2867
     77  CB       -19.8330   23.8920   21.3400 C.3   347  ASN347      0.1155
     78  CG       -18.4490   23.8640   20.8560 C.2   347  ASN347      0.2627
     79  OD1      -17.6990   22.9160   21.1520 O.2   347  ASN347     -0.2716
     80  ND2      -18.0300   24.9720   20.2170 N.am  347  ASN347     -0.0877
     81  N        -15.2860   21.6850   28.4920 N.3   373  ASN373     -0.1240
     82  CA       -15.8710   20.4770   28.0180 C.3   373  ASN373      0.1653
     83  C        -14.8680   19.4750   27.4620 C.2   373  ASN373      0.2266
     84  O        -15.2490   18.5210   26.8640 O.2   373  ASN373     -0.2867
     85  CB       -17.0940   20.7050   27.1410 C.3   373  ASN373      0.1155
     86  CG       -16.7300   21.1620   25.8090 C.2   373  ASN373      0.2627
     87  OD1      -15.5740   21.0920   25.4730 O.2   373  ASN373     -0.2716
     88  ND2      -17.7140   21.3650   24.9550 N.am  373  ASN373     -0.0877
     89  N        -14.9210   15.0640   27.4050 N.3   376  GLY376     -0.1210
     90  CA       -15.3430   14.0940   26.4370 C.3   376  GLY376      0.1956
     91  C        -14.2100   13.6910   25.5050 C.2   376  GLY376      0.2611
     92  O        -14.0210   12.5220   25.2600 O.2   376  GLY376     -0.2717
     93  N        -13.5350   14.6610   24.9120 N.am  377  VAL377     -0.1979
     94  CA       -12.4370   14.3290   23.9740 C.3   377  VAL377      0.1595
     95  C        -11.2960   13.6390   24.7840 C.2   377  VAL377      0.2287
     96  O        -10.5460   12.7800   24.2860 O.2   377  VAL377     -0.2864
     97  CB       -11.9890   15.5390   23.0480 C.3   377  VAL377      0.0276
     98  CG1      -11.4000   16.6370   23.8020 C.3   377  VAL377      0.0022
     99  CG2      -11.0110   15.0530   21.9960 C.3   377  VAL377      0.0022
    100  N        -12.1050   10.1830   24.8520 N.3   380  SER380     -0.1217
    101  CA       -11.8960    9.6490   23.4760 C.3   380  SER380      0.1889
    102  C        -10.3760    9.2890   23.3690 C.2   380  SER380      0.2288
    103  O         -9.9760    8.2380   22.8640 O.2   380  SER380     -0.2866
    104  CB       -12.2200   10.7210   22.4450 C.3   380  SER380      0.2089
    105  OG       -13.5740   10.6560   22.1120 O.3   380  SER380     -0.2183
@<TRIPOS>BOND
     1    39    38    2
     2    38    37    1
     3    36    37    1
     4    37    40    1
     5    40    41    1
     6    41    42    1
     7    17    16    2
     8    16    15    1
     9    42    43    1
    10    13    12    2
    11     1     2    1
    12    43    44    1
    13    48    47    2
    14    45    46    1
    15    12    11    1
    16    12    14   am
    17    15    14    1
    18     2     3    1
    19     2     5    1
    20    10     3   am
    21    10    11    1
    22     3     4    2
    23    47    46    1
    24    47    50   am
    25    58    59    1
    26    58    55    1
    27    61    59   ar
    28    46    49    1
    29    59    60   ar
    30    22    23    1
    31    22    19    1
    32    57    56    2
    33    56    55    1
    34     5     6    1
    35    51    50    1
    36    51    52    1
    37    54    55    1
    38    54    52   am
    39    52    53    2
    40    23    24    1
    41    18    19    1
    42    19    20    1
    43     7     6    1
    44     7     8    1
    45     9     8    1
    46    20    21    2
    47    25    24    2
    48    24    26   am
    49    80    78   am
    50    78    79    2
    51    78    77    1
    52    77    74    1
    53    76    75    2
    54    27    28    1
    55    99    97    1
    56   105   104    1
    57    75    74    1
    58    34    35    1
    59    34    33    1
    60   104   101    1
    61    31    28    1
    62    31    32    1
    63    74    73    1
    64   103   102    2
    65    28    29    1
    66    97    98    1
    67    97    94    1
    68    29    30    2
    69   102   101    1
    70   101   100    1
    71    32    33    1
    72    72    70    1
    73    94    95    1
    74    94    93    1
    75    96    95    2
    76    70    71    1
    77    70    69    2
    78    69    68    1
    79    93    91   am
    80    88    86   am
    81    68    67    1
    82    92    91    2
    83    87    86    2
    84    91    90    1
    85    67    66    1
    86    86    85    1
    87    90    89    1
    88    66    63    1
    89    84    83    2
    90    85    82    1
    91    83    82    1
    92    65    64    2
    93    63    64    1
    94    63    62    1
    95    82    81    1
