@<TRIPOS>MOLECULE
tmp/1bh5B01.pdb
 119 111 0 0 0
SMALL
GASTEIGER

@<TRIPOS>ATOM
      1  N          1.5820    8.6840  107.1530 N.3   117  ASN117     -0.1240
      2  CA         1.7440    9.8860  106.3230 C.3   117  ASN117      0.1653
      3  C          1.0930    9.7900  104.9650 C.2   117  ASN117      0.2266
      4  O          1.2980   10.6020  104.0590 O.2   117  ASN117     -0.2867
      5  CB         3.2320   10.2330  106.2570 C.3   117  ASN117      0.1155
      6  CG         3.7290   10.6640  107.6300 C.2   117  ASN117      0.2627
      7  OD1        3.2110   11.6350  108.1770 O.2   117  ASN117     -0.2716
      8  ND2        4.6690    9.9030  108.1560 N.am  117  ASN117     -0.0877
      9  N         -4.4780    8.9570  107.2510 N.3   121  ARG121     -0.1245
     10  CA        -3.4660    9.5530  108.1160 C.3   121  ARG121      0.1563
     11  C         -3.8900    9.6980  109.5750 C.2   121  ARG121      0.2260
     12  O         -5.0730    9.7630  109.8850 O.2   121  ARG121     -0.2867
     13  CB        -3.1360   10.9220  107.5120 C.3   121  ARG121      0.0307
     14  CG        -2.4740   10.8260  106.1460 C.3   121  ARG121      0.0489
     15  CD        -1.8630   12.1470  105.6930 C.3   121  ARG121      0.2205
     16  NE        -2.8280   13.2350  105.8150 N.pl3 121  ARG121     -0.0865
     17  CZ        -2.5430   14.5410  105.7530 C.cat 121  ARG121      0.5346
     18  NH1       -1.3160   14.9720  105.5500 N.pl3 121  ARG121      0.1354
     19  NH2       -3.5170   15.4530  105.8790 N.pl3 121  ARG121      0.1354
     20  N          4.9980   11.3630  113.0670 N.3   125  HIS125     -0.1241
     21  CA         6.3950   11.1120  113.3110 C.3   125  HIS125      0.1621
     22  C          6.7960   11.3160  114.7600 C.2   125  HIS125      0.2264
     23  O          6.0780   11.9170  115.5490 O.2   125  HIS125     -0.2867
     24  CB         7.2950   12.0930  112.5120 C.3   125  HIS125      0.0745
     25  CG         7.0650   13.5500  112.7660 C.ar  125  HIS125      0.0817
     26  ND1        6.2170   14.2980  111.9830 N.ar  125  HIS125     -0.2268
     27  CD2        7.5670   14.4160  113.6690 C.ar  125  HIS125      0.1154
     28  CE1        6.2020   15.5630  112.3900 C.ar  125  HIS125      0.1986
     29  NE2        7.0180   15.6500  113.4150 N.ar  125  HIS125     -0.2212
     30  N         13.3850   11.0960  104.1810 N.3   148  VAL148     -0.1231
     31  CA        12.1260   11.6030  103.6530 C.3   148  VAL148      0.1692
     32  C         12.4200   13.0550  103.2100 C.2   148  VAL148      0.2591
     33  O         11.9100   13.5610  102.2260 O.2   148  VAL148     -0.2718
     34  CB        11.0410   11.6550  104.7510 C.3   148  VAL148      0.0266
     35  CG1        9.7820   12.3000  104.1990 C.3   148  VAL148      0.0020
     36  CG2       10.7180   10.2700  105.2430 C.3   148  VAL148      0.0020
     37  N         13.2600   13.7290  103.9980 N.am  149  LYS149     -0.1980
     38  CA        13.6000   15.1260  103.6960 C.3   149  LYS149      0.1596
     39  C         15.0200   15.4410  104.1380 C.2   149  LYS149      0.2287
     40  O         15.3440   15.3630  105.3250 O.2   149  LYS149     -0.2864
     41  CB        12.5840   16.1080  104.2790 C.3   149  LYS149      0.0298
     42  CG        12.9340   17.5760  104.1130 C.3   149  LYS149      0.0038
     43  CD        12.2610   18.4840  105.1500 C.3   149  LYS149      0.0206
     44  CE        12.4190   19.9700  104.8160 C.3   149  LYS149      0.1093
     45  NZ        13.8580   20.4170  104.8690 N.3   149  LYS149     -0.1314
     46  N         11.5920   24.5650  104.6610 N.3   156  MET156     -0.1245
     47  CA        12.3410   24.7020  105.8970 C.3   156  MET156      0.1570
     48  C         13.7660   24.1580  105.7590 C.2   156  MET156      0.2261
     49  O         13.9420   22.9550  105.5780 O.2   156  MET156     -0.2867
     50  CB        11.5830   23.9060  106.9700 C.3   156  MET156      0.0387
     51  CG        10.7400   24.6980  107.9400 C.3   156  MET156      0.0595
     52  SD         9.2550   23.8810  108.5520 S.3   156  MET156     -0.1393
     53  CE         8.7080   22.9200  107.1450 C.3   156  MET156      0.0692
     54  N         16.3900   21.3040  108.7360 N.3   159  LEU159     -0.1245
     55  CA        15.4380   20.3880  109.3430 C.3   159  LEU159      0.1561
     56  C         15.3580   19.1750  108.4240 C.2   159  LEU159      0.2260
     57  O         15.2230   19.3820  107.2230 O.2   159  LEU159     -0.2867
     58  CB        14.0520   21.0480  109.4860 C.3   159  LEU159      0.0270
     59  CG        12.9420   20.0280  109.7910 C.3   159  LEU159      0.0019
     60  CD1       12.9790   19.7540  111.2870 C.3   159  LEU159      0.0001
     61  CD2       11.5900   20.5290  109.3230 C.3   159  LEU159      0.0001
     62  N         14.0370   14.8790  107.8100 N.3   161  PHE161     -0.1241
     63  CA        13.1900   13.7550  108.1310 C.3   161  PHE161      0.1605
     64  C         13.9050   12.4980  107.6110 C.2   161  PHE161      0.2264
     65  O         14.2520   12.4090  106.4300 O.2   161  PHE161     -0.2867
     66  CB        11.7640   13.8720  107.5870 C.3   161  PHE161      0.0534
     67  CG        10.8790   14.7670  108.4340 C.ar  161  PHE161     -0.0203
     68  CD1       10.1720   14.2650  109.5100 C.ar  161  PHE161     -0.0042
     69  CD2       10.7860   16.1250  108.1500 C.ar  161  PHE161     -0.0042
     70  CE1        9.3630   15.0930  110.2780 C.ar  161  PHE161     -0.0003
     71  CE2       10.0020   16.9620  108.9340 C.ar  161  PHE161     -0.0003
     72  CZ         9.2940   16.4450  110.0030 C.ar  161  PHE161     -0.0000
     73  N          8.4670    8.0250  110.0460 N.3   169  TRP169     -0.1241
     74  CA         9.2230    9.2500  109.8910 C.3   169  TRP169      0.1605
     75  C          9.7910    9.7140  111.2210 C.2   169  TRP169      0.2264
     76  O          9.1990    9.5920  112.2820 O.2   169  TRP169     -0.2867
     77  CB         8.3930   10.3980  109.3090 C.3   169  TRP169      0.0550
     78  CG         7.8940   10.2750  107.9140 C.ar  169  TRP169      0.0003
     79  CD1        7.8790    9.1480  107.1270 C.ar  169  TRP169      0.0946
     80  CD2        7.3430   11.3240  107.0980 C.ar  169  TRP169      0.0152
     81  NE1        7.3340    9.4250  105.8960 N.ar  169  TRP169     -0.2442
     82  CE2        6.9920   10.7570  105.8620 C.ar  169  TRP169      0.0810
     83  CE3        7.1090   12.6830  107.3030 C.ar  169  TRP169      0.0012
     84  CZ2        6.4040   11.4950  104.8250 C.ar  169  TRP169      0.0191
     85  CZ3        6.5280   13.4040  106.2800 C.ar  169  TRP169      0.0001
     86  CH2        6.1900   12.8190  105.0590 C.ar  169  TRP169      0.0015
     87  N         11.7450   13.1700  112.6960 N.3   171  GLN171     -0.1245
     88  CA        12.2080   14.5300  112.5700 C.3   171  GLN171      0.1566
     89  C         13.5800   14.6810  113.2130 C.2   171  GLN171      0.2260
     90  O         13.8840   14.0850  114.2540 O.2   171  GLN171     -0.2867
     91  CB        11.2480   15.5270  113.2210 C.3   171  GLN171      0.0367
     92  CG        11.4360   17.0000  112.8430 C.3   171  GLN171      0.0905
     93  CD        10.3640   17.8470  113.5070 C.2   171  GLN171      0.2608
     94  OE1        9.3670   18.1810  112.8780 O.2   171  GLN171     -0.2717
     95  NE2       10.4860   18.2070  114.7690 N.am  171  GLN171     -0.0878
     96  N         16.1130   17.7950  114.2840 N.3   173  LEU173     -0.1245
     97  CA        16.1990   19.2660  114.3880 C.3   173  LEU173      0.1561
     98  C         17.1750   19.7430  115.4320 C.2   173  LEU173      0.2260
     99  O         17.5530   19.0470  116.3740 O.2   173  LEU173     -0.2867
    100  CB        14.7550   19.6290  114.6390 C.3   173  LEU173      0.0270
    101  CG        14.2270   20.8780  115.2890 C.3   173  LEU173      0.0019
    102  CD1       12.8670   21.2190  114.7190 C.3   173  LEU173      0.0001
    103  CD2       14.1600   20.7170  116.7910 C.3   173  LEU173      0.0001
    104  N         16.2380   27.0030  115.2580 N.3   178  MET178     -0.1245
    105  CA        14.9090   27.0730  114.6720 C.3   178  MET178      0.1570
    106  C         14.3520   28.4870  114.6140 C.2   178  MET178      0.2261
    107  O         13.7870   28.8960  113.5860 O.2   178  MET178     -0.2867
    108  CB        13.9520   26.1390  115.4190 C.3   178  MET178      0.0387
    109  CG        13.7760   24.7360  114.9280 C.3   178  MET178      0.0595
    110  SD        14.3180   24.2430  113.2900 S.3   178  MET178     -0.1393
    111  CE        12.9510   24.6740  112.2400 C.3   178  MET178      0.0692
    112  N         12.3360   30.6720  111.0860 N.3   182  MET182     -0.1245
    113  CA        10.9410   30.9800  111.3430 C.3   182  MET182      0.1570
    114  C         10.7950   32.5030  111.5040 C.2   182  MET182      0.2261
    115  O          9.8120   32.9370  112.1630 O.2   182  MET182     -0.2867
    116  CB        10.4340   30.2610  112.5870 C.3   182  MET182      0.0387
    117  CG         9.6000   29.0300  112.2840 C.3   182  MET182      0.0595
    118  SD        10.2280   27.5430  113.0780 S.3   182  MET182     -0.1393
    119  CE        10.4720   28.1180  114.7600 C.3   182  MET182      0.0692
@<TRIPOS>BOND
     1    33    32    2
     2    32    31    1
     3    32    37   am
     4    31    30    1
     5    31    34    1
     6    38    37    1
     7    38    39    1
     8    38    41    1
     9     4     3    2
    10    42    41    1
    11    42    43    1
    12    39    40    2
    13    35    34    1
    14    46    47    1
    15    34    36    1
    16    44    45    1
    17    44    43    1
    18    84    86   ar
    19    84    82   ar
    20     3     2    1
    21    86    85   ar
    22    18    17    1
    23    49    48    2
    24    15    16    1
    25    15    14    1
    26    17    16    2
    27    17    19    1
    28    48    47    1
    29    82    81   ar
    30    82    80   ar
    31    81    79   ar
    32    47    50    1
    33    14    13    1
    34     5     2    1
    35     5     6    1
    36    85    83   ar
    37     2     1    1
    38    65    64    2
    39    50    51    1
    40    80    83   ar
    41    80    78   ar
    42    79    78   ar
    43    53    52    1
    44    57    56    2
    45     9    10    1
    46    13    10    1
    47    66    63    1
    48    66    67    1
    49    64    63    1
    50     6     8   am
    51     6     7    2
    52    62    63    1
    53    78    77    1
    54    51    52    1
    55    10    11    1
    56    69    67   ar
    57    69    71   ar
    58    56    55    1
    59    67    68   ar
    60    54    55    1
    61    71    72   ar
    62    77    74    1
    63    61    59    1
    64    55    58    1
    65    58    59    1
    66    68    70   ar
    67    11    12    2
    68    59    60    1
    69    74    73    1
    70    74    75    1
    71    72    70   ar
    72   112   113    1
    73    75    76    2
    74   113   114    1
    75   113   116    1
    76   114   115    2
    77    26    28   ar
    78    26    25   ar
    79   111   110    1
    80   117   116    1
    81   117   118    1
    82    28    29   ar
    83    24    25    1
    84    24    21    1
    85    88    87    1
    86    88    89    1
    87    88    91    1
    88    25    27   ar
    89    92    91    1
    90    92    93    1
    91    94    93    2
    92    20    21    1
    93   118   119    1
    94    89    90    2
    95   110   109    1
    96    21    22    1
    97    29    27   ar
    98    93    95   am
    99   107   106    2
   100    96    97    1
   101    97   100    1
   102    97    98    1
   103   106   105    1
   104   100   101    1
   105   105   104    1
   106   105   108    1
   107   102   101    1
   108    22    23    2
   109   109   108    1
   110   101   103    1
   111    98    99    2
