@<TRIPOS>MOLECULE
tmp/1bh5B00.pdb
 132 120 0 0 0
SMALL
GASTEIGER

@<TRIPOS>ATOM
      1  N          5.7670    7.2190  127.2090 N.3    32  GLU32      -0.1245
      2  CA         6.0940    6.4640  126.0110 C.3    32  GLU32       0.1567
      3  C          5.2580    6.7870  124.7840 C.2    32  GLU32       0.2260
      4  O          4.1410    7.2800  124.8350 O.2    32  GLU32      -0.2867
      5  CB         5.9140    4.9420  126.2780 C.3    32  GLU32       0.0388
      6  CG         4.4530    4.6030  126.5420 C.3    32  GLU32       0.1160
      7  CD         4.0980    3.1390  126.6670 C.2    32  GLU32       0.3649
      8  OE1        4.9050    2.3190  127.1550 O.co2  32  GLU32      -0.2457
      9  OE2        2.9420    2.7770  126.3260 O.co2  32  GLU32      -0.2457
     10  N          4.3400    4.3360  121.3440 N.3    34  MET34      -0.1245
     11  CA         4.3740    2.9560  120.8900 C.3    34  MET34       0.1570
     12  C          4.2160    2.8500  119.3810 C.2    34  MET34       0.2261
     13  O          3.2220    3.3180  118.8530 O.2    34  MET34      -0.2867
     14  CB         3.2630    2.1170  121.5570 C.3    34  MET34       0.0387
     15  CG         3.4080    0.6040  121.3820 C.3    34  MET34       0.0595
     16  SD         2.8780   -0.0070  119.7680 S.3    34  MET34      -0.1393
     17  CE         1.2630   -0.6340  120.2720 C.3    34  MET34       0.0692
     18  N          4.4970   -0.2420  116.2200 N.3    36  ARG36      -0.1245
     19  CA         4.5850   -1.6570  115.9010 C.3    36  ARG36       0.1563
     20  C          5.7080   -1.8170  114.8810 C.2    36  ARG36       0.2260
     21  O          5.7590   -1.0300  113.9370 O.2    36  ARG36      -0.2867
     22  CB         3.2620   -2.1880  115.3240 C.3    36  ARG36       0.0307
     23  CG         2.1270   -2.1960  116.3450 C.3    36  ARG36       0.0489
     24  CD         0.8370   -2.7250  115.7530 C.3    36  ARG36       0.2205
     25  NE        -0.3370   -2.6980  116.6070 N.pl3  36  ARG36      -0.0865
     26  CZ        -1.0840   -1.6260  116.8860 C.cat  36  ARG36       0.5346
     27  NH1       -0.7720   -0.4280  116.3650 N.pl3  36  ARG36       0.1354
     28  NH2       -2.1720   -1.6920  117.6410 N.pl3  36  ARG36       0.1354
     29  N         14.5640   -2.1210  128.4630 N.3    57  GLN57      -0.1245
     30  CA        13.7000   -3.1910  128.9570 C.3    57  GLN57       0.1566
     31  C         13.1070   -3.9730  127.7870 C.2    57  GLN57       0.2260
     32  O         12.7820   -3.4050  126.7510 O.2    57  GLN57      -0.2867
     33  CB        12.5580   -2.6340  129.8200 C.3    57  GLN57       0.0367
     34  CG        11.6110   -3.6670  130.3990 C.3    57  GLN57       0.0905
     35  CD        12.2870   -4.6070  131.3720 C.2    57  GLN57       0.2608
     36  OE1       12.7620   -4.2410  132.4410 O.2    57  GLN57      -0.2717
     37  NE2       12.3630   -5.8890  131.0180 N.am   57  GLN57      -0.0878
     38  N         10.1730   -7.1500  127.2080 N.3    59  CYS59      -0.1235
     39  CA         9.1050   -7.9050  127.8360 C.3    59  CYS59       0.1677
     40  C          8.4960   -8.8620  126.8080 C.2    59  CYS59       0.2270
     41  O          8.2710   -8.4270  125.6800 O.2    59  CYS59      -0.2867
     42  CB         7.9830   -6.9720  128.3160 C.3    59  CYS59       0.0956
     43  SG         8.4600   -5.8670  129.6660 S.3    59  CYS59      -0.0801
     44  N          5.4860  -11.8330  125.8600 N.3    61  PHE61      -0.1241
     45  CA         4.1450  -12.3220  126.1810 C.3    61  PHE61       0.1605
     46  C          3.8820  -13.5200  125.2740 C.2    61  PHE61       0.2264
     47  O          3.3560  -13.3720  124.1750 O.2    61  PHE61      -0.2867
     48  CB         3.1290  -11.2110  126.0340 C.3    61  PHE61       0.0534
     49  CG         3.3510  -10.0290  126.9400 C.ar   61  PHE61      -0.0203
     50  CD1        4.1840   -8.9960  126.5340 C.ar   61  PHE61      -0.0042
     51  CD2        2.7560   -9.9600  128.1830 C.ar   61  PHE61      -0.0042
     52  CE1        4.4130   -7.9070  127.3510 C.ar   61  PHE61      -0.0003
     53  CE2        2.9910   -8.8780  129.0190 C.ar   61  PHE61      -0.0003
     54  CZ         3.8060   -7.8490  128.5980 C.ar   61  PHE61      -0.0000
     55  N          0.1990  -14.3570  124.0510 N.3    64  MET64      -0.1245
     56  CA        -0.2800  -13.3700  123.0790 C.3    64  MET64       0.1570
     57  C          0.6630  -13.2000  121.9090 C.2    64  MET64       0.2261
     58  O          0.3900  -12.4960  120.9370 O.2    64  MET64      -0.2867
     59  CB        -0.5320  -12.0310  123.7900 C.3    64  MET64       0.0387
     60  CG        -1.6570  -12.2090  124.8200 C.3    64  MET64       0.0595
     61  SD        -2.0750  -10.6660  125.6590 S.3    64  MET64      -0.1393
     62  CE        -0.9070  -10.6690  126.9940 C.3    64  MET64       0.0692
     63  N          3.7460  -11.7240  121.4620 N.3    66  PHE66      -0.1241
     64  CA         4.2950  -10.4110  121.1520 C.3    66  PHE66       0.1605
     65  C          5.3680  -10.0620  122.1980 C.2    66  PHE66       0.2264
     66  O          5.3790  -10.6190  123.2920 O.2    66  PHE66      -0.2867
     67  CB         3.2570   -9.3180  121.0060 C.3    66  PHE66       0.0534
     68  CG         2.6040   -8.8060  122.2500 C.ar   66  PHE66      -0.0203
     69  CD1        3.1580   -7.7550  122.9550 C.ar   66  PHE66      -0.0042
     70  CD2        1.4240   -9.3600  122.7130 C.ar   66  PHE66      -0.0042
     71  CE1        2.5420   -7.2660  124.0910 C.ar   66  PHE66      -0.0003
     72  CE2        0.8110   -8.8670  123.8610 C.ar   66  PHE66      -0.0003
     73  CZ         1.3810   -7.8150  124.5640 C.ar   66  PHE66      -0.0000
     74  N          7.7350   -6.5430  123.6160 N.3    68  LEU68      -0.1245
     75  CA         7.8420   -5.1230  123.7710 C.3    68  LEU68       0.1561
     76  C          9.3080   -4.7720  124.0520 C.2    68  LEU68       0.2260
     77  O          9.9670   -5.3930  124.8940 O.2    68  LEU68      -0.2867
     78  CB         7.0410   -4.6250  124.9870 C.3    68  LEU68       0.0270
     79  CG         5.5450   -4.9750  125.0360 C.3    68  LEU68       0.0019
     80  CD1        4.9270   -4.4280  126.3170 C.3    68  LEU68       0.0001
     81  CD2        4.8680   -4.4080  123.8100 C.3    68  LEU68       0.0001
     82  N         11.6950   -1.4970  125.0520 N.3    70  PHE70      -0.1241
     83  CA        11.6510   -0.0920  125.4770 C.3    70  PHE70       0.1605
     84  C         13.0000    0.5630  125.2170 C.2    70  PHE70       0.2264
     85  O         14.0200    0.0780  125.7490 O.2    70  PHE70      -0.2867
     86  CB        11.2520    0.0590  126.9400 C.3    70  PHE70       0.0534
     87  CG         9.8480   -0.4380  127.2120 C.ar   70  PHE70      -0.0203
     88  CD1        9.6380   -1.7790  127.4820 C.ar   70  PHE70      -0.0042
     89  CD2        8.7690    0.4170  127.1750 C.ar   70  PHE70      -0.0042
     90  CE1        8.3590   -2.2610  127.7130 C.ar   70  PHE70      -0.0003
     91  CE2        7.4920   -0.0670  127.4180 C.ar   70  PHE70      -0.0003
     92  CZ         7.2810   -1.4020  127.6710 C.ar   70  PHE70      -0.0000
     93  N         12.2400   -2.9540  135.9780 N.3    87  ILE87      -0.1245
     94  CA        10.9450   -2.7190  135.3520 C.3    87  ILE87       0.1561
     95  C         10.3420   -1.4160  135.8280 C.2    87  ILE87       0.2260
     96  O          9.8890   -0.6240  134.9990 O.2    87  ILE87      -0.2867
     97  CB        10.0300   -3.9450  135.5960 C.3    87  ILE87       0.0252
     98  CG1       10.6130   -5.1200  134.7950 C.3    87  ILE87       0.0019
     99  CG2        8.6010   -3.7070  135.1650 C.3    87  ILE87       0.0019
    100  CD1       10.4640   -6.4800  135.4470 C.3    87  ILE87       0.0001
    101  N          9.8810    1.6630  133.2000 N.3    91  LEU91      -0.1245
    102  CA         8.5790    2.1990  132.8380 C.3    91  LEU91       0.1561
    103  C          8.2950    3.5560  133.4680 C.2    91  LEU91       0.2260
    104  O          7.2270    4.1440  133.2260 O.2    91  LEU91      -0.2867
    105  CB         7.4840    1.1840  133.2120 C.3    91  LEU91       0.0270
    106  CG         7.3880    0.0290  132.1960 C.3    91  LEU91       0.0019
    107  CD1        6.2850   -0.9160  132.5940 C.3    91  LEU91       0.0001
    108  CD2        7.1180    0.5680  130.7850 C.3    91  LEU91       0.0001
    109  N          8.4110    2.6840  122.7380 N.3    98  GLU98      -0.1245
    110  CA         8.0570    1.2620  122.9040 C.3    98  GLU98       0.1567
    111  C          7.7960    0.6570  121.5310 C.2    98  GLU98       0.2260
    112  O          6.9270    1.1480  120.7820 O.2    98  GLU98      -0.2867
    113  CB         6.8190    1.0760  123.7590 C.3    98  GLU98       0.0388
    114  CG         6.3240   -0.3070  124.0710 C.3    98  GLU98       0.1160
    115  CD         4.9080   -0.3410  124.6090 C.2    98  GLU98       0.3649
    116  OE1        4.2070    0.6960  124.5760 O.co2  98  GLU98      -0.2457
    117  OE2        4.5120   -1.4360  125.0510 O.co2  98  GLU98      -0.2457
    118  N          6.6260   -2.5900  119.5350 N.3   100  THR100     -0.1218
    119  CA         5.8080   -3.7900  119.7040 C.3   100  THR100      0.1862
    120  C          6.0880   -4.7250  118.5260 C.2   100  THR100      0.2287
    121  O          5.8880   -4.3700  117.3610 O.2   100  THR100     -0.2866
    122  CB         4.2980   -3.4620  119.7580 C.3   100  THR100      0.1770
    123  OG1        3.9470   -2.7360  120.9320 O.3   100  THR100     -0.2211
    124  CG2        3.4420   -4.7270  119.8350 C.3   100  THR100      0.0375
    125  N          4.9640   -8.1620  116.8250 N.3   102  ASN102     -0.1240
    126  CA         3.9560   -9.2460  116.8030 C.3   102  ASN102      0.1653
    127  C          4.6750  -10.4430  116.1820 C.2   102  ASN102      0.2266
    128  O          5.1520  -10.3320  115.0430 O.2   102  ASN102     -0.2867
    129  CB         2.7330   -8.8040  116.0000 C.3   102  ASN102      0.1155
    130  CG         1.8410   -7.8580  116.7940 C.2   102  ASN102      0.2627
    131  OD1        1.3380   -8.2740  117.8470 O.2   102  ASN102     -0.2716
    132  ND2        1.5950   -6.6280  116.3510 N.am  102  ASN102     -0.0877
@<TRIPOS>BOND
     1    21    20    2
     2    20    19    1
     3   128   127    2
     4    22    19    1
     5    22    23    1
     6    24    23    1
     7    24    25    1
     8    19    18    1
     9   129   130    1
    10   129   126    1
    11   127   126    1
    12   132   130   am
    13    27    26    1
    14    25    26    2
    15   130   131    2
    16   126   125    1
    17    26    28    1
    18   121   120    2
    19   120   119    1
    20    13    12    2
    21    12    11    1
    22   118   119    1
    23   119   122    1
    24   122   124    1
    25   122   123    1
    26    16    17    1
    27    16    15    1
    28   112   111    2
    29    11    10    1
    30    11    14    1
    31    58    57    2
    32    67    64    1
    33    67    68    1
    34    64    63    1
    35    64    65    1
    36    15    14    1
    37   111   110    1
    38    57    56    1
    39    65    66    2
    40    68    70   ar
    41    68    69   ar
    42    70    72   ar
    43   109   110    1
    44   110   113    1
    45    69    71   ar
    46    56    59    1
    47    56    55    1
    48    74    75    1
    49   113   114    1
    50    75    76    1
    51    75    78    1
    52    59    60    1
    53    81    79    1
    54    72    73   ar
    55    76    77    2
    56   114   115    1
    57    71    73   ar
    58    47    46    2
    59   116   115   ar
    60   115   117   ar
    61     3     4    2
    62     3     2    1
    63    60    61    1
    64    78    79    1
    65    79    80    1
    66    82    83    1
    67    84    83    1
    68    84    85    2
    69    46    45    1
    70    83    86    1
    71    61    62    1
    72    41    40    2
    73    44    45    1
    74     2     5    1
    75     2     1    1
    76    48    45    1
    77    48    49    1
    78     5     6    1
    79     9     7   ar
    80    50    49   ar
    81    50    52   ar
    82     6     7    1
    83     7     8   ar
    84    32    31    2
    85    40    39    1
    86    86    87    1
    87    49    51   ar
    88    89    87   ar
    89    89    91   ar
    90    38    39    1
    91    87    88   ar
    92    52    54   ar
    93    91    92   ar
    94    88    90   ar
    95    92    90   ar
    96    31    30    1
    97    39    42    1
    98    51    53   ar
    99    42    43    1
   100    29    30    1
   101    54    53   ar
   102    30    33    1
   103    33    34    1
   104    34    35    1
   105   108   106    1
   106    37    35   am
   107    35    36    2
   108   106   107    1
   109   106   105    1
   110   102   101    1
   111   102   105    1
   112   102   103    1
   113   104   103    2
   114    98   100    1
   115    98    97    1
   116    96    95    2
   117    99    97    1
   118    94    97    1
   119    94    95    1
   120    94    93    1
