@<TRIPOS>MOLECULE
tmp/1bh6A00.pdb
 181 172 0 0 0
SMALL
GASTEIGER

@<TRIPOS>ATOM
      1  N         24.7820   11.9540   29.0410 N.3    33  THR33      -0.1218
      2  CA        24.2400   12.4210   30.3420 C.3    33  THR33       0.1862
      3  C         23.0060   11.6750   30.8240 C.2    33  THR33       0.2287
      4  O         22.3120   12.1200   31.7510 O.2    33  THR33      -0.2866
      5  CB        23.9410   13.9200   30.2490 C.3    33  THR33       0.1770
      6  OG1       22.8420   14.1470   29.3020 O.3    33  THR33      -0.2211
      7  CG2       25.1170   14.7910   29.7460 C.3    33  THR33       0.0375
      8  N         20.5530   17.1430   32.2190 N.3    61  ASN61      -0.1240
      9  CA        21.3440   18.0080   31.3480 C.3    61  ASN61       0.1653
     10  C         20.5340   18.2380   30.0760 C.2    61  ASN61       0.2266
     11  O         20.2480   19.3930   29.6800 O.2    61  ASN61      -0.2867
     12  CB        22.7550   17.3910   31.1220 C.3    61  ASN61       0.1155
     13  CG        23.5650   18.3330   30.2270 C.2    61  ASN61       0.2627
     14  OD1       23.2580   18.3200   29.0290 O.2    61  ASN61      -0.2716
     15  ND2       24.4450   19.0920   30.8300 N.am   61  ASN61      -0.0877
     16  N         21.4260   16.7170   27.1180 N.3    63  HIS63      -0.1241
     17  CA        22.2220   16.3440   25.9340 C.3    63  HIS63       0.1621
     18  C         21.9650   14.9050   25.5340 C.2    63  HIS63       0.2264
     19  O         21.7370   14.6750   24.3320 O.2    63  HIS63      -0.2867
     20  CB        23.6900   16.4790   26.3580 C.3    63  HIS63       0.0745
     21  CG        24.6770   16.5610   25.2580 C.ar   63  HIS63       0.0817
     22  ND1       25.4140   15.4730   24.8190 N.ar   63  HIS63      -0.2268
     23  CD2       25.1030   17.6130   24.5600 C.ar   63  HIS63       0.1154
     24  CE1       26.2430   15.8180   23.8940 C.ar   63  HIS63       0.1986
     25  NE2       26.0930   17.1050   23.7170 N.ar   63  HIS63      -0.2212
     26  N         28.0840   11.0120   32.2510 N.3    95  LEU95      -0.1245
     27  CA        28.2530   12.4040   32.5510 C.3    95  LEU95       0.1561
     28  C         27.1350   12.8100   33.5190 C.2    95  LEU95       0.2260
     29  O         25.9980   12.3280   33.3910 O.2    95  LEU95      -0.2867
     30  CB        28.1790   13.3520   31.3560 C.3    95  LEU95       0.0270
     31  CG        29.0930   12.9110   30.1970 C.3    95  LEU95       0.0019
     32  CD1       28.8130   13.7070   28.9150 C.3    95  LEU95       0.0001
     33  CD2       30.5360   13.0010   30.6590 C.3    95  LEU95       0.0001
     34  N         27.1540   18.1760   32.9350 N.3    99  GLY99      -0.1210
     35  CA        28.0190   17.8380   31.8310 C.3    99  GLY99       0.1956
     36  C         29.4250   17.4540   32.2540 C.2    99  GLY99       0.2613
     37  O         30.3750   17.7060   31.4640 O.2    99  GLY99      -0.2717
     38  N         29.7820   16.9490   33.4390 N.am  100  SER100     -0.1938
     39  CA        31.1070   16.5800   33.8040 C.3   100  SER100      0.2055
     40  C         31.0780   15.0290   34.0440 C.2   100  SER100      0.2643
     41  O         30.1860   14.4750   34.6980 O.2   100  SER100     -0.2714
     42  CB        31.7440   17.0900   35.1310 C.3   100  SER100      0.2130
     43  OG        31.6340   18.4970   35.1890 O.3   100  SER100     -0.2179
     44  N         32.1820   14.5150   33.5350 N.am  101  GLY101     -0.1954
     45  CA        32.3950   13.0570   33.7390 C.3   101  GLY101      0.1869
     46  C         33.9200   12.8280   33.8420 C.2   101  GLY101      0.2309
     47  O         34.7810   13.5910   33.3690 O.2   101  GLY101     -0.2863
     48  N         37.3040   10.0180   33.3920 N.3   103  TYR103     -0.1241
     49  CA        37.7010    9.0260   32.3960 C.3   103  TYR103      0.1605
     50  C         37.2010    7.6400   32.8600 C.2   103  TYR103      0.2264
     51  O         36.8500    6.7600   32.0790 O.2   103  TYR103     -0.2867
     52  CB        39.2360    8.7870   32.3640 C.3   103  TYR103      0.0534
     53  CG        39.9710    9.9180   31.7180 C.ar  103  TYR103     -0.0201
     54  CD1       40.0540   11.1250   32.4450 C.ar  103  TYR103     -0.0009
     55  CD2       40.4790    9.8500   30.4380 C.ar  103  TYR103     -0.0009
     56  CE1       40.6910   12.2290   31.8790 C.ar  103  TYR103      0.0417
     57  CE2       41.1570   10.9350   29.8910 C.ar  103  TYR103      0.0417
     58  CZ        41.2660   12.1190   30.6080 C.ar  103  TYR103      0.1957
     59  OH        41.8820   13.2560   30.0780 O.3   103  TYR103     -0.2866
     60  N         33.6180    6.9110   31.8900 N.3   106  ILE106     -0.1245
     61  CA        33.5380    6.7200   30.4540 C.3   106  ILE106      0.1561
     62  C         34.0320    5.3950   30.0320 C.2   106  ILE106      0.2260
     63  O         33.4190    4.6840   29.2270 O.2   106  ILE106     -0.2867
     64  CB        34.2340    7.9350   29.7470 C.3   106  ILE106      0.0252
     65  CG1       33.4600    9.1610   30.2800 C.3   106  ILE106      0.0019
     66  CG2       34.2260    7.7480   28.2430 C.3   106  ILE106      0.0019
     67  CD1       33.7490   10.4270   29.5880 C.3   106  ILE106      0.0001
     68  N         28.6330   11.1580   22.0410 N.3   124  SER124     -0.1202
     69  CA        28.6260   12.5640   21.6690 C.3   124  SER124      0.2020
     70  C         29.3440   13.3290   22.8070 C.2   124  SER124      0.2619
     71  O         28.7220   14.1210   23.5410 O.2   124  SER124     -0.2717
     72  CB        27.1780   13.0280   21.5350 C.3   124  SER124      0.2103
     73  OG        26.6280   12.5650   20.2720 O.3   124  SER124     -0.2182
     74  N         30.6440   13.0750   23.0000 N.am  125  LEU125     -0.1965
     75  CA        31.3380   13.7140   24.1440 C.3   125  LEU125      0.1728
     76  C         32.8250   13.5990   23.7970 C.2   125  LEU125      0.2617
     77  O         33.1860   12.7440   22.9760 O.2   125  LEU125     -0.2715
     78  CB        31.0200   13.0360   25.4870 C.3   125  LEU125      0.0311
     79  CG        31.2240   11.5110   25.5020 C.3   125  LEU125      0.0022
     80  CD1       32.6810   11.0740   25.6190 C.3   125  LEU125      0.0001
     81  CD2       30.3430   10.8570   26.5190 C.3   125  LEU125      0.0001
     82  N         33.6600   14.3970   24.5190 N.am  126  GLY126     -0.1940
     83  CA        35.0830   14.1730   24.1540 C.3   126  GLY126      0.2014
     84  C         35.8800   15.1460   25.0180 C.2   126  GLY126      0.2639
     85  O         35.2800   15.9520   25.7360 O.2   126  GLY126     -0.2714
     86  N         37.1710   14.9840   24.8780 N.am  127  GLY127     -0.1954
     87  CA        38.0630   15.8270   25.6520 C.3   127  GLY127      0.1869
     88  C         39.3110   15.9670   24.7830 C.2   127  GLY127      0.2309
     89  O         39.5040   15.1770   23.8510 O.2   127  GLY127     -0.2863
     90  N         42.3630   15.3490   25.6850 N.3   129  SER129     -0.1217
     91  CA        43.3780   14.3090   25.8470 C.3   129  SER129      0.1889
     92  C         42.6900   12.9640   26.1200 C.2   129  SER129      0.2288
     93  O         41.6060   12.9360   26.7050 O.2   129  SER129     -0.2866
     94  CB        44.3890   14.6220   26.9640 C.3   129  SER129      0.2089
     95  OG        43.6170   14.7520   28.1870 O.3   129  SER129     -0.2183
     96  N         41.2120    4.5960   28.1910 N.3   134  LEU134     -0.1245
     97  CA        40.0960    4.9710   27.2150 C.3   134  LEU134      0.1561
     98  C         40.3820    4.3490   25.8790 C.2   134  LEU134      0.2260
     99  O         39.5270    3.7410   25.2150 O.2   134  LEU134     -0.2867
    100  CB        40.0630    6.4770   27.0960 C.3   134  LEU134      0.0270
    101  CG        39.0670    7.0460   26.0840 C.3   134  LEU134      0.0019
    102  CD1       37.7090    6.4860   26.5480 C.3   134  LEU134      0.0001
    103  CD2       39.1560    8.5460   26.0240 C.3   134  LEU134      0.0001
    104  N         31.2700   12.1050   18.3600 N.3   151  ALA151     -0.1231
    105  CA        31.2620   13.4950   17.8670 C.3   151  ALA151      0.1694
    106  C         32.7490   13.9360   17.7580 C.2   151  ALA151      0.2592
    107  O         33.5460   13.6420   18.6510 O.2   151  ALA151     -0.2718
    108  CB        30.4530   14.3270   18.8610 C.3   151  ALA151      0.0304
    109  N         33.1580   14.5630   16.6850 N.am  152  ALA152     -0.1966
    110  CA        34.5340   14.9670   16.4530 C.3   152  ALA152      0.1728
    111  C         34.9440   16.0710   17.4050 C.2   152  ALA152      0.2617
    112  O         36.1440   16.1980   17.6930 O.2   152  ALA152     -0.2715
    113  CB        34.6930   15.4910   14.9760 C.3   152  ALA152      0.0334
    114  N         34.0110   16.9110   17.8290 N.am  153  GLY153     -0.1940
    115  CA        34.4350   18.0550   18.6640 C.3   153  GLY153      0.2014
    116  C         33.8640   19.3280   18.0680 C.2   153  GLY153      0.2638
    117  O         33.5560   19.3950   16.8920 O.2   153  GLY153     -0.2714
    118  N         33.7120   20.3430   18.9320 N.am  154  ASN154     -0.1972
    119  CA        33.0880   21.5980   18.5670 C.3   154  ASN154      0.1688
    120  C         34.1000   22.7560   18.7490 C.2   154  ASN154      0.2292
    121  O         33.7460   23.8260   19.1540 O.2   154  ASN154     -0.2864
    122  CB        31.9520   21.8410   19.5830 C.3   154  ASN154      0.1181
    123  CG        30.8580   20.7880   19.4140 C.2   154  ASN154      0.2629
    124  OD1       30.6290   20.3120   18.3200 O.2   154  ASN154     -0.2716
    125  ND2       30.1790   20.4420   20.4630 N.am  154  ASN154     -0.0877
    126  N         38.6260   15.7530   19.1380 N.3   165  GLY165     -0.1210
    127  CA        38.7130   15.3320   20.5270 C.3   165  GLY165      0.1956
    128  C         38.8720   13.8540   20.6490 C.2   165  GLY165      0.2612
    129  O         38.7660   13.1210   19.6330 O.2   165  GLY165     -0.2717
    130  N         39.0680   13.4000   21.8550 N.am  166  TYR166     -0.1962
    131  CA        39.1100   11.9260   22.1180 C.3   166  TYR166      0.1756
    132  C         37.7510   11.6440   22.8200 C.2   166  TYR166      0.2461
    133  O         37.2750   12.5200   23.5480 O.2   166  TYR166     -0.2730
    134  CB        40.1540   11.5410   23.1450 C.3   166  TYR166      0.0574
    135  CG        41.5260   11.6920   22.5410 C.ar  166  TYR166     -0.0198
    136  CD1       42.1250   12.9700   22.5770 C.ar  166  TYR166     -0.0009
    137  CD2       42.1360   10.6400   21.9410 C.ar  166  TYR166     -0.0009
    138  CE1       43.3940   13.2000   22.0430 C.ar  166  TYR166      0.0417
    139  CE2       43.3920   10.8490   21.3740 C.ar  166  TYR166      0.0417
    140  CZ        43.9950   12.0790   21.4900 C.ar  166  TYR166      0.1957
    141  OH        45.2550   12.2180   20.9160 O.3   166  TYR166     -0.2866
    142  N         37.1460   10.5260   22.5500 N.am  167  PRO167     -0.2727
    143  CA        37.6930    9.4200   21.7850 C.3   167  PRO167      0.1402
    144  C         37.5710    9.3730   20.2740 C.2   167  PRO167      0.2269
    145  O         38.0430    8.4070   19.6250 O.2   167  PRO167     -0.2865
    146  CB        36.9080    8.2050   22.4100 C.3   167  PRO167      0.0296
    147  CG        35.5770    8.8940   22.6580 C.3   167  PRO167      0.0237
    148  CD        35.8400   10.2420   23.2200 C.3   167  PRO167      0.0939
    149  N         22.7980   22.7820   18.4940 N.3   217  ASN217     -0.1225
    150  CA        23.8750   22.7010   17.5330 C.3   217  ASN217      0.1785
    151  C         25.0400   21.9440   18.1740 C.2   217  ASN217      0.2598
    152  O         25.3570   22.1100   19.3650 O.2   217  ASN217     -0.2718
    153  CB        24.5040   24.0850   17.2490 C.3   217  ASN217      0.1169
    154  CG        23.4360   25.0690   16.8850 C.2   217  ASN217      0.2627
    155  OD1       22.6090   24.7890   15.9870 O.2   217  ASN217     -0.2716
    156  ND2       23.3470   26.1600   17.6330 N.am  217  ASN217     -0.0877
    157  N         25.6870   21.1160   17.3560 N.am  218  GLY218     -0.1942
    158  CA        26.8610   20.4540   17.8780 C.3   218  GLY218      0.2014
    159  C         27.2630   19.2940   17.0140 C.2   218  GLY218      0.2640
    160  O         26.3670   18.7290   16.3620 O.2   218  GLY218     -0.2714
    161  N         28.5210   18.8930   17.1300 N.am  219  THR219     -0.1936
    162  CA        28.9110   17.6210   16.4890 C.3   219  THR219      0.2028
    163  C         28.1990   16.5460   17.3250 C.2   219  THR219      0.2643
    164  O         28.0720   15.3920   16.7970 O.2   219  THR219     -0.2714
    165  CB        30.4140   17.3870   16.4100 C.3   219  THR219      0.1808
    166  OG1       30.9910   17.5630   17.6950 O.3   219  THR219     -0.2208
    167  CG2       31.1180   18.3360   15.4220 C.3   219  THR219      0.0379
    168  N         27.7030   16.8010   18.5490 N.am  220  SER220     -0.1935
    169  CA        26.9260   15.8140   19.3040 C.3   220  SER220      0.2055
    170  C         25.6370   15.3800   18.6140 C.2   220  SER220      0.2642
    171  O         25.1710   14.3120   18.8310 O.2   220  SER220     -0.2714
    172  CB        26.3940   16.3760   20.6610 C.3   220  SER220      0.2130
    173  OG        27.6130   16.4190   21.4170 O.3   220  SER220     -0.2179
    174  N         25.1300   16.3750   17.8050 N.am  221  MET221     -0.1976
    175  CA        23.8790   16.1480   17.0550 C.3   221  MET221      0.1605
    176  C         24.1990   15.3830   15.7700 C.2   221  MET221      0.2287
    177  O         23.3230   14.6950   15.2500 O.2   221  MET221     -0.2864
    178  CB        23.2240   17.5050   16.6890 C.3   221  MET221      0.0413
    179  CG        22.5820   18.2170   17.8960 C.3   221  MET221      0.0598
    180  SD        23.7020   18.7780   19.2440 S.3   221  MET221     -0.1393
    181  CE        23.1870   17.5830   20.5360 C.3   221  MET221      0.0692
@<TRIPOS>BOND
     1   113   110    1
     2   177   176    2
     3   167   165    1
     4   176   175    1
     5   155   154    2
     6   160   159    2
     7   165   162    1
     8   165   166    1
     9   110   109    1
    10   110   111    1
    11   162   161    1
    12   162   163    1
    13   109   106   am
    14   178   175    1
    15   178   179    1
    16   164   163    2
    17   154   153    1
    18   154   156   am
    19   117   116    2
    20   159   161   am
    21   159   158    1
    22   175   174    1
    23   153   150    1
    24   163   168   am
    25   157   158    1
    26   157   151   am
    27   111   112    2
    28   111   114   am
    29   150   151    1
    30   150   149    1
    31   106   105    1
    32   106   107    2
    33   174   170   am
    34   114   115    1
    35   105   104    1
    36   105   108    1
    37   179   180    1
    38   116   115    1
    39   116   118   am
    40   151   152    2
    41   124   123    2
    42   168   169    1
    43   119   120    1
    44   119   118    1
    45   119   122    1
    46   170   171    2
    47   170   169    1
    48   120   121    2
    49   126   127    1
    50   180   181    1
    51   169   172    1
    52   123   122    1
    53   123   125   am
    54   145   144    2
    55   129   128    2
    56    73    72    1
    57   144   143    1
    58   127   128    1
    59   128   130   am
    60   172   173    1
    61   141   140    1
    62   139   140   ar
    63   139   137   ar
    64   140   138   ar
    65    72    69    1
    66    69    68    1
    67    69    70    1
    68   143   146    1
    69   143   142    1
    70   130   131    1
    71   137   135   ar
    72   138   136   ar
    73   131   132    1
    74   131   134    1
    75   146   147    1
    76   135   136   ar
    77   135   134    1
    78   142   132   am
    79   142   148    1
    80   147   148    1
    81    70    74   am
    82    70    71    2
    83   132   133    2
    84    77    76    2
    85    74    75    1
    86    25    24   ar
    87    25    23   ar
    88    76    75    1
    89    76    82   am
    90    89    88    2
    91    24    22   ar
    92    75    78    1
    93    83    82    1
    94    83    84    1
    95    19    18    2
    96    23    21   ar
    97    88    87    1
    98    22    21   ar
    99    86    84   am
   100    86    87    1
   101    84    85    2
   102    99    98    2
   103    21    20    1
   104    78    79    1
   105    79    80    1
   106    79    81    1
   107    18    17    1
   108    90    91    1
   109    91    92    1
   110    91    94    1
   111    98    97    1
   112    17    20    1
   113    17    16    1
   114   103   101    1
   115   101   102    1
   116   101   100    1
   117    92    93    2
   118    94    95    1
   119   100    97    1
   120    97    96    1
   121    66    64    1
   122    32    31    1
   123    14    13    2
   124     1     2    1
   125    63    62    2
   126     6     5    1
   127    67    65    1
   128    11    10    2
   129     7     5    1
   130    64    65    1
   131    64    61    1
   132    57    55   ar
   133    57    58   ar
   134    62    61    1
   135    10     9    1
   136    59    58    1
   137    31    33    1
   138    31    30    1
   139    13    15   am
   140    13    12    1
   141     5     2    1
   142     2     3    1
   143    55    53   ar
   144    61    60    1
   145    58    56   ar
   146     3     4    2
   147    12     9    1
   148     9     8    1
   149    30    27    1
   150    37    36    2
   151    53    52    1
   152    53    54   ar
   153    35    36    1
   154    35    34    1
   155    56    54   ar
   156    51    50    2
   157    26    27    1
   158    36    38   am
   159    52    49    1
   160    49    50    1
   161    49    48    1
   162    27    28    1
   163    47    46    2
   164    29    28    2
   165    38    39    1
   166    44    45    1
   167    44    40   am
   168    45    46    1
   169    39    40    1
   170    39    42    1
   171    40    41    2
   172    42    43    1
