@<TRIPOS>MOLECULE
tmp/1bhfA00.pdb
 163 156 0 0 0
SMALL
GASTEIGER

@<TRIPOS>ATOM
      1  N         38.1150   -5.0020    1.0810 N.3    13  ARG13      -0.1245
      2  CA        36.7520   -5.3630    1.3940 C.3    13  ARG13       0.1563
      3  C         36.6830   -6.8280    1.8230 C.2    13  ARG13       0.2260
      4  O         36.0700   -7.1470    2.8330 O.2    13  ARG13      -0.2867
      5  CB        35.8820   -5.1490    0.1450 C.3    13  ARG13       0.0307
      6  CG        34.4440   -5.6200    0.3050 C.3    13  ARG13       0.0489
      7  CD        33.7810   -5.9930   -1.0140 C.3    13  ARG13       0.2205
      8  NE        32.8960   -4.9500   -1.5040 N.pl3  13  ARG13      -0.0865
      9  CZ        31.5650   -4.9350   -1.4060 C.cat  13  ARG13       0.5346
     10  NH1       30.8960   -5.9240   -0.8450 N.pl3  13  ARG13       0.1354
     11  NH2       30.9070   -3.8700   -1.8240 N.pl3  13  ARG13       0.1354
     12  N         37.7380    1.5800    6.3960 N.3    33  ARG33      -0.1245
     13  CA        38.9110    1.3610    5.5560 C.3    33  ARG33       0.1563
     14  C         38.7830    2.2500    4.3240 C.2    33  ARG33       0.2260
     15  O         37.7500    2.8910    4.1380 O.2    33  ARG33      -0.2867
     16  CB        38.9480   -0.1190    5.1500 C.3    33  ARG33       0.0307
     17  CG        37.5780   -0.6190    4.6950 C.3    33  ARG33       0.0489
     18  CD        37.5300   -2.0790    4.2500 C.3    33  ARG33       0.2205
     19  NE        36.1720   -2.4260    3.8220 N.pl3  33  ARG33      -0.0865
     20  CZ        35.7060   -2.2310    2.5930 C.cat  33  ARG33       0.5346
     21  NH1       36.4870   -1.7230    1.6420 N.pl3  33  ARG33       0.1354
     22  NH2       34.4180   -2.4190    2.3380 N.pl3  33  ARG33       0.1354
     23  N         37.9540    3.1810    0.6610 N.3    35  SER35      -0.1202
     24  CA        36.9550    2.5770   -0.2020 C.3    35  SER35       0.2020
     25  C         37.5830    1.9520   -1.4170 C.2    35  SER35       0.2619
     26  O         38.5480    2.4840   -1.9620 O.2    35  SER35      -0.2717
     27  CB        35.9430    3.6190   -0.6650 C.3    35  SER35       0.2103
     28  OG        35.0600    3.1030   -1.6570 O.3    35  SER35      -0.2182
     29  N         37.0440    0.8110   -1.8330 N.am   36  GLU36      -0.1965
     30  CA        37.5030    0.1510   -3.0400 C.3    36  GLU36       0.1733
     31  C         36.9310    0.9330   -4.2360 C.2    36  GLU36       0.2617
     32  O         37.4850    0.9010   -5.3400 O.2    36  GLU36      -0.2715
     33  CB        36.9820   -1.2900   -3.1240 C.3    36  GLU36       0.0429
     34  CG        37.3320   -2.1830   -1.9640 C.3    36  GLU36       0.1163
     35  CD        37.5750   -3.6240   -2.3960 C.2    36  GLU36       0.3649
     36  OE1       36.9280   -4.1100   -3.3500 O.co2  36  GLU36      -0.2457
     37  OE2       38.4340   -4.2740   -1.7750 O.co2  36  GLU36      -0.2457
     38  N         35.8220    1.6310   -4.0020 N.am   37  SER37      -0.1950
     39  CA        35.1470    2.3970   -5.0480 C.3    37  SER37       0.1924
     40  C         35.6660    3.7650   -5.5070 C.2    37  SER37       0.2314
     41  O         36.1240    3.8920   -6.6360 O.2    37  SER37      -0.2863
     42  CB        33.6670    2.5530   -4.7050 C.3    37  SER37       0.2116
     43  OG        33.0390    1.2950   -4.6130 O.3    37  SER37      -0.2180
     44  N         35.0320    3.3750    3.4320 N.3    43  SER43      -0.1217
     45  CA        33.8770    2.5010    3.5420 C.3    43  SER43       0.1889
     46  C         33.7840    1.9890    4.9630 C.2    43  SER43       0.2288
     47  O         34.8050    1.8220    5.6450 O.2    43  SER43      -0.2866
     48  CB        34.0330    1.2990    2.5990 C.3    43  SER43       0.2089
     49  OG        34.0970    1.6840    1.2360 O.3    43  SER43      -0.2183
     50  N         28.1270   -6.2520    6.4650 N.3    58  LYS58      -0.1231
     51  CA        27.4770   -5.2590    5.6130 C.3    58  LYS58       0.1693
     52  C         28.4860   -4.1110    5.4100 C.2    58  LYS58       0.2592
     53  O         29.1100   -3.6630    6.3750 O.2    58  LYS58      -0.2718
     54  CB        26.2020   -4.7200    6.2950 C.3    58  LYS58       0.0285
     55  CG        24.8550   -5.2650    5.7760 C.3    58  LYS58       0.0035
     56  CD        24.6600   -6.7090    6.1420 C.3    58  LYS58       0.0206
     57  CE        23.1770   -7.1210    6.1050 C.3    58  LYS58       0.1093
     58  NZ        22.3530   -6.7320    7.2950 N.3    58  LYS58      -0.1314
     59  N         28.6100   -3.6410    4.1660 N.am   59  HIS59      -0.1962
     60  CA        29.5300   -2.5440    3.7720 C.3    59  HIS59       0.1787
     61  C         28.7430   -1.2970    3.3220 C.2    59  HIS59       0.2620
     62  O         27.8090   -1.4130    2.5200 O.2    59  HIS59      -0.2715
     63  CB        30.4300   -2.9540    2.5860 C.3    59  HIS59       0.0785
     64  CG        31.2120   -4.2000    2.8070 C.ar   59  HIS59       0.0821
     65  ND1       32.3270   -4.2580    3.6300 N.ar   59  HIS59      -0.2267
     66  CD2       31.0490   -5.4610    2.3320 C.ar   59  HIS59       0.1154
     67  CE1       32.8020   -5.4830    3.6480 C.ar   59  HIS59       0.1986
     68  NE2       32.0480   -6.2360    2.8690 N.ar   59  HIS59      -0.2212
     69  N         29.1040   -0.1480    3.8810 N.am   60  TYR60      -0.1960
     70  CA        28.4930    1.1290    3.5440 C.3    60  TYR60       0.1771
     71  C         29.5610    2.0670    2.9850 C.2    60  TYR60       0.2619
     72  O         30.7140    2.0910    3.4600 O.2    60  TYR60      -0.2715
     73  CB        27.9020    1.8300    4.7720 C.3    60  TYR60       0.0574
     74  CG        26.7170    1.1490    5.4000 C.ar   60  TYR60      -0.0198
     75  CD1       26.8920    0.1650    6.3680 C.ar   60  TYR60      -0.0009
     76  CD2       25.4010    1.5160    5.0520 C.ar   60  TYR60      -0.0009
     77  CE1       25.7930   -0.4410    6.9790 C.ar   60  TYR60       0.0417
     78  CE2       24.2960    0.9080    5.6640 C.ar   60  TYR60       0.0417
     79  CZ        24.5030   -0.0630    6.6180 C.ar   60  TYR60       0.1957
     80  OH        23.4370   -0.6890    7.2270 O.3    60  TYR60      -0.2866
     81  N         29.1910    2.8180    1.9590 N.am   61  LYS61      -0.1977
     82  CA        30.0950    3.8100    1.3970 C.3    61  LYS61       0.1596
     83  C         29.9600    5.0460    2.2770 C.2    61  LYS61       0.2287
     84  O         28.8730    5.3670    2.7280 O.2    61  LYS61      -0.2864
     85  CB        29.6560    4.1640   -0.0160 C.3    61  LYS61       0.0298
     86  CG        29.6550    2.9590   -0.9020 C.3    61  LYS61       0.0038
     87  CD        29.0870    3.3140   -2.2150 C.3    61  LYS61       0.0206
     88  CE        30.0030    4.1720   -3.0170 C.3    61  LYS61       0.1093
     89  NZ        31.0470    3.2990   -3.6190 N.3    61  LYS61      -0.1314
     90  N         30.3460    8.8250    2.1830 N.3    63  ARG63      -0.1245
     91  CA        30.5570    9.8800    1.2220 C.3    63  ARG63       0.1563
     92  C         31.3120   11.1050    1.7730 C.2    63  ARG63       0.2260
     93  O         31.2850   11.3850    2.9620 O.2    63  ARG63      -0.2867
     94  CB        29.2280   10.3010    0.5700 C.3    63  ARG63       0.0307
     95  CG        29.1630   10.1330   -0.8690 C.3    63  ARG63       0.0489
     96  CD        28.4080    8.9030   -1.1640 C.3    63  ARG63       0.2205
     97  NE        27.0080    9.0830   -0.7910 N.pl3  63  ARG63      -0.0865
     98  CZ        26.4800    8.6760    0.3600 C.cat  63  ARG63       0.5346
     99  NH1       27.2460    8.0690    1.2560 N.pl3  63  ARG63       0.1354
    100  NH2       25.1750    8.8270    0.6000 N.pl3  63  ARG63       0.1354
    101  N         26.6380    8.9730    5.5160 N.3    72  ILE72      -0.1231
    102  CA        26.2380    7.7210    4.8850 C.3    72  ILE72       0.1692
    103  C         24.8820    7.9990    4.2240 C.2    72  ILE72       0.2592
    104  O         24.5950    7.5240    3.1400 O.2    72  ILE72      -0.2718
    105  CB        26.2200    6.5300    5.8970 C.3    72  ILE72       0.0266
    106  CG1       27.6730    6.2320    6.3100 C.3    72  ILE72       0.0019
    107  CG2       25.5690    5.2800    5.2560 C.3    72  ILE72       0.0020
    108  CD1       27.8390    5.3070    7.4540 C.3    72  ILE72       0.0001
    109  N         24.0870    8.8270    4.8780 N.am   73  SER73      -0.1952
    110  CA        22.7930    9.2310    4.3680 C.3    73  SER73       0.1924
    111  C         22.7580   10.7550    4.4050 C.2    73  SER73       0.2314
    112  O         23.1040   11.3690    5.4150 O.2    73  SER73      -0.2863
    113  CB        21.6660    8.6680    5.2560 C.3    73  SER73       0.2116
    114  OG        20.4060    9.2300    4.9220 O.3    73  SER73      -0.2180
    115  N         20.6520   12.9240    5.1060 N.3    75  ARG75      -0.1245
    116  CA        19.9560   13.6460    6.1710 C.3    75  ARG75       0.1563
    117  C         20.7120   13.9140    7.4650 C.2    75  ARG75       0.2260
    118  O         20.1370   14.3920    8.4470 O.2    75  ARG75      -0.2867
    119  CB        18.5740   13.0480    6.4660 C.3    75  ARG75       0.0307
    120  CG        18.5370   11.5860    6.7930 C.3    75  ARG75       0.0489
    121  CD        17.1560   11.2690    7.3430 C.3    75  ARG75       0.2205
    122  NE        16.6910    9.9300    6.9950 N.pl3  75  ARG75      -0.0865
    123  CZ        16.8230    8.8710    7.7800 C.cat  75  ARG75       0.5346
    124  NH1       17.4230    8.9840    8.9670 N.pl3  75  ARG75       0.1354
    125  NH2       16.2980    7.7100    7.4020 N.pl3  75  ARG75       0.1354
    126  N         26.9170    6.7520   15.1530 N.3    88  TYR88      -0.1241
    127  CA        26.3930    5.4220   14.9110 C.3    88  TYR88       0.1605
    128  C         26.6720    4.3810   15.9820 C.2    88  TYR88       0.2264
    129  O         26.0880    3.3000   15.9860 O.2    88  TYR88      -0.2867
    130  CB        26.7780    4.9710   13.5280 C.3    88  TYR88       0.0534
    131  CG        26.0230    5.7680   12.4990 C.ar   88  TYR88      -0.0201
    132  CD1       24.6650    5.5280   12.2550 C.ar   88  TYR88      -0.0009
    133  CD2       26.6610    6.7400   11.7530 C.ar   88  TYR88      -0.0009
    134  CE1       23.9700    6.2400   11.2740 C.ar   88  TYR88       0.0417
    135  CE2       25.9810    7.4590   10.7790 C.ar   88  TYR88       0.0417
    136  CZ        24.6360    7.2060   10.5420 C.ar   88  TYR88       0.1957
    137  OH        23.9850    7.9290    9.5680 O.3    88  TYR88      -0.2866
    138  N         20.2810    4.5460   13.9440 N.3    93  ASP93      -0.1225
    139  CA        19.7380    5.6190   13.1080 C.3    93  ASP93       0.1805
    140  C         19.7540    5.2980   11.6050 C.2    93  ASP93       0.2598
    141  O         20.2960    6.0520   10.7930 O.2    93  ASP93      -0.2718
    142  CB        20.5380    6.9070   13.4040 C.3    93  ASP93       0.1424
    143  CG        19.9940    8.1340   12.6860 C.2    93  ASP93       0.3668
    144  OD1       18.7970    8.2020   12.3620 O.co2  93  ASP93      -0.2456
    145  OD2       20.7750    9.0570   12.4360 O.co2  93  ASP93      -0.2456
    146  N         19.1760    4.1570   11.2400 N.am   94  GLY94      -0.1942
    147  CA        19.1490    3.7570    9.8440 C.3    94  GLY94       0.2014
    148  C         20.0710    2.5920    9.5010 C.2    94  GLY94       0.2639
    149  O         19.8200    1.8810    8.5370 O.2    94  GLY94      -0.2714
    150  N         21.1580    2.4180   10.2540 N.am   95  LEU95      -0.1963
    151  CA        22.1000    1.3170   10.0100 C.3    95  LEU95       0.1728
    152  C         21.5370   -0.0400   10.4070 C.2    95  LEU95       0.2616
    153  O         20.6310   -0.1240   11.2370 O.2    95  LEU95      -0.2715
    154  CB        23.3830    1.5040   10.8260 C.3    95  LEU95       0.0311
    155  CG        24.5000    2.4650   10.4350 C.3    95  LEU95       0.0022
    156  CD1       25.6970    2.1350   11.3470 C.3    95  LEU95       0.0001
    157  CD2       24.8760    2.3250    8.9710 C.3    95  LEU95       0.0001
    158  N         22.1960   -1.0940    9.9190 N.am   96  CYS96      -0.1968
    159  CA        21.8200   -2.4880   10.2030 C.3    96  CYS96       0.1712
    160  C         21.9260   -2.8360   11.6950 C.2    96  CYS96       0.2296
    161  O         21.1420   -3.6070   12.2020 O.2    96  CYS96      -0.2864
    162  CB        22.6800   -3.4510    9.3680 C.3    96  CYS96       0.0983
    163  SG        24.4550   -3.2660    9.6280 S.3    96  CYS96      -0.0798
@<TRIPOS>BOND
     1    41    40    2
     2    40    39    1
     3    32    31    2
     4    39    42    1
     5    39    38    1
     6    42    43    1
     7    31    38   am
     8    31    30    1
     9    89    88    1
    10    36    35   ar
    11    33    30    1
    12    33    34    1
    13    30    29    1
    14    88    87    1
    15    35    34    1
    16    35    37   ar
    17    87    86    1
    18    26    25    2
    19    29    25   am
    20    11     9    1
    21    28    27    1
    22     8     9    2
    23     8     7    1
    24    25    24    1
    25     9    10    1
    26    96    95    1
    27    96    97    1
    28     7     6    1
    29    86    85    1
    30    95    94    1
    31    97    98    2
    32    27    24    1
    33    24    23    1
    34    85    82    1
    35     5     6    1
    36     5     2    1
    37    98   100    1
    38    98    99    1
    39    94    91    1
    40     1     2    1
    41    91    92    1
    42    91    90    1
    43    49    48    1
    44     2     3    1
    45    82    81    1
    46    82    83    1
    47    21    20    1
    48    92    93    2
    49     3     4    2
    50    81    71   am
    51    83    84    2
    52    66    64   ar
    53    66    68   ar
    54    22    20    1
    55    62    61    2
    56    63    64    1
    57    63    60    1
    58    20    19    2
    59    48    45    1
    60    64    65   ar
    61    68    67   ar
    62    71    72    2
    63    71    70    1
    64   104   103    2
    65    61    60    1
    66    61    69   am
    67    44    45    1
    68    45    46    1
    69    70    69    1
    70    70    73    1
    71    65    67   ar
    72    60    59    1
    73    19    18    1
    74    15    14    2
    75    59    52   am
    76   103   109   am
    77   103   102    1
    78    18    17    1
    79    14    13    1
    80   110   111    1
    81   110   109    1
    82   110   113    1
    83   111   112    2
    84    17    16    1
    85    73    74    1
    86   102   101    1
    87   102   105    1
    88   114   113    1
    89    46    47    2
    90    76    74   ar
    91    76    78   ar
    92   115   116    1
    93    16    13    1
    94   107   105    1
    95    74    75   ar
    96    52    51    1
    97    52    53    2
    98    13    12    1
    99    51    54    1
   100    51    50    1
   101    78    79   ar
   102    55    56    1
   103    55    54    1
   104   105   106    1
   105    57    56    1
   106    57    58    1
   107   116   119    1
   108   116   117    1
   109   106   108    1
   110    75    77   ar
   111   119   120    1
   112    79    77   ar
   113    79    80    1
   114   120   121    1
   115   122   121    1
   116   122   123    2
   117   125   123    1
   118   117   118    2
   119   123   124    1
   120   149   148    2
   121   157   155    1
   122   162   163    1
   123   162   159    1
   124   148   147    1
   125   148   150   am
   126   137   136    1
   127   147   146    1
   128   158   159    1
   129   158   152   am
   130   151   150    1
   131   151   152    1
   132   151   154    1
   133   159   160    1
   134   152   153    2
   135   155   154    1
   136   155   156    1
   137   136   135   ar
   138   136   134   ar
   139   135   133   ar
   140   141   140    2
   141   146   140   am
   142   134   132   ar
   143   140   139    1
   144   160   161    2
   145   133   131   ar
   146   132   131   ar
   147   144   143   ar
   148   145   143   ar
   149   131   130    1
   150   143   142    1
   151   139   142    1
   152   139   138    1
   153   130   127    1
   154   127   126    1
   155   127   128    1
   156   128   129    2
