@<TRIPOS>MOLECULE
tmp/1bhnA00.pdb
 156 147 0 0 0
SMALL
GASTEIGER

@<TRIPOS>ATOM
      1  N         28.4580   -8.0870   39.7220 N.3    11  LYS11      -0.1245
      2  CA        27.4030   -9.0260   39.3210 C.3    11  LYS11       0.1561
      3  C         25.9620   -8.8270   39.8420 C.2    11  LYS11       0.2260
      4  O         25.6700   -7.8800   40.5770 O.2    11  LYS11      -0.2867
      5  CB        27.7970  -10.4330   39.7050 C.3    11  LYS11       0.0271
      6  CG        29.2030  -10.5830   39.0750 C.3    11  LYS11       0.0035
      7  CD        29.6430  -12.0650   39.1360 C.3    11  LYS11       0.0206
      8  CE        30.9790  -12.4070   38.4830 C.3    11  LYS11       0.1093
      9  NZ        31.1250  -13.8720   38.6400 N.3    11  LYS11      -0.1314
     10  N         32.7080  -14.0340   28.0200 N.3    51  TYR51      -0.1241
     11  CA        33.0940  -15.2950   28.5400 C.3    51  TYR51       0.1605
     12  C         33.3980  -16.2560   27.4710 C.2    51  TYR51       0.2264
     13  O         33.3190  -17.4830   27.6120 O.2    51  TYR51      -0.2867
     14  CB        31.8560  -15.8550   29.2380 C.3    51  TYR51       0.0534
     15  CG        31.7080  -15.0750   30.4930 C.ar   51  TYR51      -0.0201
     16  CD1       32.7070  -15.1970   31.4620 C.ar   51  TYR51      -0.0009
     17  CD2       30.5300  -14.3680   30.7630 C.ar   51  TYR51      -0.0009
     18  CE1       32.5080  -14.5730   32.6990 C.ar   51  TYR51       0.0417
     19  CE2       30.3470  -13.7360   31.9970 C.ar   51  TYR51       0.0417
     20  CZ        31.3410  -13.8530   32.9730 C.ar   51  TYR51       0.1957
     21  OH        31.2190  -13.1830   34.1680 O.3    51  TYR51      -0.2866
     22  N         35.5970  -19.4300   27.8640 N.3    54  LEU54      -0.1245
     23  CA        35.0620  -20.3160   28.8300 C.3    54  LEU54       0.1561
     24  C         34.0400  -21.2040   28.1960 C.2    54  LEU54       0.2260
     25  O         33.7150  -22.2650   28.6780 O.2    54  LEU54      -0.2867
     26  CB        34.3890  -19.2660   29.6930 C.3    54  LEU54       0.0270
     27  CG        34.7480  -19.5220   31.1420 C.3    54  LEU54       0.0019
     28  CD1       35.0730  -21.0140   31.2020 C.3    54  LEU54       0.0001
     29  CD2       35.9330  -18.6410   31.5380 C.3    54  LEU54       0.0001
     30  N         33.5350  -25.1590   29.5520 N.3    57  ARG57      -0.1245
     31  CA        33.3540  -25.4970   30.9440 C.3    57  ARG57       0.1563
     32  C         31.9630  -25.3990   31.5120 C.2    57  ARG57       0.2260
     33  O         31.4730  -24.2820   31.6430 O.2    57  ARG57      -0.2867
     34  CB        34.2980  -24.6700   31.7540 C.3    57  ARG57       0.0307
     35  CG        35.6090  -25.3310   31.4070 C.3    57  ARG57       0.0489
     36  CD        36.0860  -26.0930   32.6260 C.3    57  ARG57       0.2205
     37  NE        36.5960  -25.1020   33.5740 N.pl3  57  ARG57      -0.0865
     38  CZ        37.3220  -23.9930   33.3210 C.cat  57  ARG57       0.5346
     39  NH1       37.7250  -23.6950   32.0680 N.pl3  57  ARG57       0.1354
     40  NH2       37.6630  -23.1910   34.3530 N.pl3  57  ARG57       0.1354
     41  N         29.7500  -25.0090   33.9290 N.3    59  PHE59      -0.1241
     42  CA        28.8870  -23.8990   34.3090 C.3    59  PHE59       0.1605
     43  C         28.3880  -22.9740   33.2010 C.2    59  PHE59       0.2264
     44  O         27.2200  -22.6130   33.2580 O.2    59  PHE59      -0.2867
     45  CB        29.2390  -23.1280   35.5830 C.3    59  PHE59       0.0534
     46  CG        30.6940  -22.8180   35.4610 C.ar   59  PHE59      -0.0203
     47  CD1       31.6410  -23.8330   35.6400 C.ar   59  PHE59      -0.0042
     48  CD2       31.0890  -21.5230   35.1130 C.ar   59  PHE59      -0.0042
     49  CE1       33.0100  -23.5680   35.5230 C.ar   59  PHE59      -0.0003
     50  CE2       32.4580  -21.2530   35.0100 C.ar   59  PHE59      -0.0003
     51  CZ        33.4040  -22.2730   35.1730 C.ar   59  PHE59      -0.0000
     52  N         24.9880  -21.5110   32.4740 N.3    62  GLY62      -0.1210
     53  CA        24.2630  -21.1870   33.6930 C.3    62  GLY62       0.1956
     54  C         24.6470  -19.8240   34.0990 C.2    62  GLY62       0.2608
     55  O         23.8560  -19.0390   34.6220 O.2    62  GLY62      -0.2717
     56  N         25.9080  -19.7290   33.7840 N.am   63  LEU63      -0.2032
     57  CA        26.6690  -18.5830   34.0370 C.3    63  LEU63       0.1282
     58  C         26.1070  -17.3980   33.2410 C.3    63  LEU63       0.2036
     59  O         25.8190  -16.2400   33.7190 O.3    63  LEU63      -0.2185
     60  CB        28.1640  -18.9630   33.9560 C.3    63  LEU63       0.0244
     61  CG        29.0170  -17.7250   33.6580 C.3    63  LEU63       0.0018
     62  CD1       29.0020  -16.6400   34.7480 C.3    63  LEU63       0.0001
     63  CD2       30.4200  -18.0930   33.2410 C.3    63  LEU63       0.0001
     64  N         22.8310  -16.5950   34.2930 N.3    66  TYR66      -0.1241
     65  CA        22.8490  -15.8210   35.4840 C.3    66  TYR66       0.1605
     66  C         23.2670  -14.3990   35.2600 C.2    66  TYR66       0.2264
     67  O         22.6850  -13.4590   35.7910 O.2    66  TYR66      -0.2867
     68  CB        23.3620  -16.6900   36.6520 C.3    66  TYR66       0.0534
     69  CG        23.9780  -15.7940   37.6480 C.ar   66  TYR66      -0.0201
     70  CD1       23.1930  -15.0590   38.5390 C.ar   66  TYR66      -0.0009
     71  CD2       25.3660  -15.7000   37.6220 C.ar   66  TYR66      -0.0009
     72  CE1       23.7900  -14.1600   39.4290 C.ar   66  TYR66       0.0417
     73  CE2       25.9530  -14.7940   38.5020 C.ar   66  TYR66       0.0417
     74  CZ        25.1830  -14.0370   39.3870 C.ar   66  TYR66       0.1957
     75  OH        25.9480  -13.1730   40.1510 O.3    66  TYR66      -0.2866
     76  N         42.6250   -6.8630   41.7460 N.3    87  ARG87      -0.1245
     77  CA        42.2290   -8.2480   41.7880 C.3    87  ARG87       0.1563
     78  C         42.2100   -8.7930   43.1810 C.2    87  ARG87       0.2260
     79  O         41.4600   -9.6500   43.6460 O.2    87  ARG87      -0.2867
     80  CB        43.1850   -8.9790   40.8650 C.3    87  ARG87       0.0307
     81  CG        42.5160   -9.1780   39.4970 C.3    87  ARG87       0.0489
     82  CD        42.2880  -10.6950   39.2920 C.3    87  ARG87       0.2205
     83  NE        41.1300  -11.2220   38.5230 N.pl3  87  ARG87      -0.0865
     84  CZ        40.9230  -12.5330   38.2380 C.cat  87  ARG87       0.5346
     85  NH1       41.6810  -13.5640   38.6060 N.pl3  87  ARG87       0.1354
     86  NH2       39.8480  -12.6710   37.5010 N.pl3  87  ARG87       0.1354
     87  N         38.5920  -15.6680   43.2630 N.3    93  THR93      -0.1218
     88  CA        37.2660  -15.8210   42.6330 C.3    93  THR93       0.1862
     89  C         36.2710  -16.6700   43.4850 C.2    93  THR93       0.2287
     90  O         35.0780  -16.3430   43.5330 O.2    93  THR93      -0.2866
     91  CB        37.5760  -16.4420   41.2480 C.3    93  THR93       0.1770
     92  OG1       36.3960  -16.6550   40.4900 O.3    93  THR93      -0.2211
     93  CG2       38.0490  -17.8580   41.5700 C.3    93  THR93       0.0375
     94  N         35.0980  -10.2320   48.2130 N.3   104  ARG104     -0.1301
     95  CA        34.4040  -11.4990   48.3910 C.3   104  ARG104      0.1248
     96  C         34.5340  -12.0500   49.8080 C.3   104  ARG104      0.2009
     97  O         33.4930  -12.5490   50.2600 O.3   104  ARG104     -0.2188
     98  CB        34.6300  -12.5590   47.2660 C.3   104  ARG104      0.0254
     99  CG        34.4220  -12.1650   45.7790 C.3   104  ARG104      0.0485
    100  CD        35.1690  -13.0570   44.7550 C.3   104  ARG104      0.2205
    101  NE        34.8880  -13.0060   43.2870 N.pl3 104  ARG104     -0.0865
    102  CZ        35.7420  -12.6110   42.3120 C.cat 104  ARG104      0.5346
    103  NH1       36.9470  -12.1270   42.6310 N.pl3 104  ARG104      0.1354
    104  NH2       35.3260  -12.6470   40.9920 N.pl3 104  ARG104      0.1354
    105  N         30.9790  -19.6740   44.9690 N.3   111  VAL111     -0.1231
    106  CA        31.5210  -19.1080   43.7240 C.3   111  VAL111      0.1692
    107  C         30.5620  -18.6310   42.6640 C.2   111  VAL111      0.2593
    108  O         30.8550  -17.7460   41.8890 O.2   111  VAL111     -0.2718
    109  CB        32.0870  -20.0210   42.7040 C.3   111  VAL111      0.0266
    110  CG1       33.2210  -19.2060   42.1350 C.3   111  VAL111      0.0020
    111  CG2       32.4360  -21.3770   43.2350 C.3   111  VAL111      0.0020
    112  N         29.4900  -19.3620   42.5730 N.am  112  GLY112     -0.1942
    113  CA        28.5680  -19.0290   41.5320 C.3   112  GLY112      0.2014
    114  C         28.0520  -17.6730   41.8420 C.2   112  GLY112      0.2639
    115  O         27.7220  -16.8780   40.9190 O.2   112  GLY112     -0.2714
    116  N         28.0000  -17.5190   43.1660 N.am  113  ARG113     -0.1963
    117  CA        27.5380  -16.2830   43.6950 C.3   113  ARG113      0.1729
    118  C         28.4610  -15.1150   43.9040 C.2   113  ARG113      0.2613
    119  O         28.0900  -14.0010   44.1250 O.2   113  ARG113     -0.2715
    120  CB        26.3800  -16.4930   44.5990 C.3   113  ARG113      0.0348
    121  CG        25.2060  -17.2010   43.8990 C.3   113  ARG113      0.0492
    122  CD        24.2560  -16.3720   42.9710 C.3   113  ARG113      0.2205
    123  NE        24.5280  -17.2470   41.8400 N.pl3 113  ARG113     -0.0865
    124  CZ        23.6570  -18.0400   41.2780 C.cat 113  ARG113      0.5346
    125  NH1       22.3480  -17.9190   41.5750 N.pl3 113  ARG113      0.1354
    126  NH2       24.1920  -18.8710   40.3740 N.pl3 113  ARG113      0.1354
    127  N         29.7330  -15.2430   43.7160 N.am  114  ASN114     -0.2025
    128  CA        30.6210  -14.0980   43.9040 C.3   114  ASN114      0.1374
    129  C         30.4420  -12.6530   43.5480 C.3   114  ASN114      0.2041
    130  O         31.5250  -12.1320   43.2140 O.3   114  ASN114     -0.2185
    131  CB        32.0840  -14.3790   43.6810 C.3   114  ASN114      0.1128
    132  CG        32.3350  -14.8750   42.2900 C.2   114  ASN114      0.2626
    133  OD1       31.9920  -14.1640   41.3320 O.2   114  ASN114     -0.2716
    134  ND2       32.9220  -16.0660   42.1980 N.am  114  ASN114     -0.0877
    135  N         33.1610   -8.8700   39.4490 N.3   117  HIS117     -0.1226
    136  CA        34.1060   -9.3360   38.4540 C.3   117  HIS117      0.1752
    137  C         35.1890   -8.3000   38.1420 C.2   117  HIS117      0.2596
    138  O         34.9750   -7.0850   37.9990 O.2   117  HIS117     -0.2718
    139  CB        33.4390   -9.9590   37.1330 C.3   117  HIS117      0.0759
    140  CG        34.5000  -10.0280   36.0470 C.ar  117  HIS117      0.0818
    141  ND1       35.3890  -11.1220   35.9600 N.ar  117  HIS117     -0.2268
    142  CD2       34.9370   -9.0140   35.2250 C.ar  117  HIS117      0.1154
    143  CE1       36.3390  -10.8140   35.0940 C.ar  117  HIS117      0.1986
    144  NE2       36.0530   -9.5690   34.6250 N.ar  117  HIS117     -0.2212
    145  N         36.3630   -8.9020   37.9650 N.am  118  GLY118     -0.1957
    146  CA        37.5880   -8.1840   37.6360 C.3   118  GLY118      0.1869
    147  C         38.4840   -8.8910   36.6180 C.2   118  GLY118      0.2309
    148  O         38.5890  -10.1650   36.6130 O.2   118  GLY118     -0.2863
    149  N         41.3020  -10.2330   34.8570 N.3   120  ASP120     -0.1295
    150  CA        42.5500  -10.7580   35.3390 C.3   120  ASP120      0.1359
    151  C         43.8220  -10.2720   34.7270 C.3   120  ASP120      0.2015
    152  O         44.8300  -10.8800   35.1080 O.3   120  ASP120     -0.2188
    153  CB        42.7940  -12.2770   35.1510 C.3   120  ASP120      0.1357
    154  CG        42.5620  -12.7370   33.7510 C.2   120  ASP120      0.3664
    155  OD1       42.5330  -11.8940   32.8550 O.co2 120  ASP120     -0.2456
    156  OD2       42.2820  -14.0420   33.6920 O.co2 120  ASP120     -0.2456
@<TRIPOS>BOND
     1    12    13    2
     2    12    11    1
     3    22    23    1
     4    10    11    1
     5    24    25    2
     6    24    23    1
     7    11    14    1
     8    23    26    1
     9    14    15    1
    10    30    31    1
    11    26    27    1
    12    15    17   ar
    13    15    16   ar
    14    17    19   ar
    15    31    32    1
    16    31    34    1
    17    27    28    1
    18    27    29    1
    19    35    34    1
    20    35    36    1
    21    16    18   ar
    22    32    33    2
    23    19    20   ar
    24    39    38    1
    25    52    53    1
    26    36    37    1
    27    18    20   ar
    28   155   154   ar
    29    20    21    1
    30    43    44    2
    31    43    42    1
    32    63    61    1
    33    58    59    1
    34    58    57    1
    35    38    37    2
    36    38    40    1
    37    61    60    1
    38    61    62    1
    39   156   154   ar
    40    53    54    1
    41   154   153    1
    42    56    57    1
    43    56    54   am
    44    41    42    1
    45    60    57    1
    46    54    55    2
    47    64    65    1
    48    42    45    1
    49   144   143   ar
    50   144   142   ar
    51   151   152    1
    52   151   150    1
    53   149   150    1
    54    50    48   ar
    55    50    51   ar
    56   143   141   ar
    57    48    46   ar
    58   153   150    1
    59    51    49   ar
    60   142   140   ar
    61    66    65    1
    62    66    67    2
    63    46    45    1
    64    46    47   ar
    65    65    68    1
    66    49    47   ar
    67   141   140   ar
    68   140   139    1
    69   148   147    2
    70   147   146    1
    71    68    69    1
    72   139   136    1
    73    86    84    1
    74    71    69   ar
    75    71    73   ar
    76   146   145    1
    77    69    70   ar
    78   145   137   am
    79   138   137    2
    80   137   136    1
    81    84    83    2
    82    84    85    1
    83   136   135    1
    84     8     9    1
    85     8     7    1
    86    73    74   ar
    87    83    82    1
    88    70    72   ar
    89     6     7    1
    90     6     5    1
    91    82    81    1
    92     2     5    1
    93     2     1    1
    94     2     3    1
    95    74    72   ar
    96    74    75    1
    97    81    80    1
    98     3     4    2
    99   126   124    1
   100    92    91    1
   101    80    77    1
   102   115   114    2
   103   104   102    1
   104    91    93    1
   105    91    88    1
   106   124   125    1
   107   124   123    2
   108   133   132    2
   109   113   114    1
   110   113   112    1
   111    76    77    1
   112    77    78    1
   113   123   122    1
   114   114   116   am
   115   108   107    2
   116   110   109    1
   117   134   132   am
   118   132   131    1
   119   102   103    1
   120   102   101    2
   121   112   107   am
   122    88    87    1
   123    88    89    1
   124   107   106    1
   125   109   111    1
   126   109   106    1
   127   122   121    1
   128   116   117    1
   129    78    79    2
   130   130   129    1
   131   101   100    1
   132    89    90    2
   133   129   128    1
   134   131   128    1
   135   117   118    1
   136   117   120    1
   137   127   128    1
   138   127   118   am
   139   106   105    1
   140   121   120    1
   141   118   119    2
   142   100    99    1
   143    99    98    1
   144    98    95    1
   145    94    95    1
   146    95    96    1
   147    96    97    1
