@<TRIPOS>MOLECULE
tmp/1bhnC00.pdb
 130 121 0 0 0
SMALL
GASTEIGER

@<TRIPOS>ATOM
      1  N         51.3650   10.9250   57.2780 N.3    11  LYS11      -0.1245
      2  CA        52.0650   11.8100   56.3990 C.3    11  LYS11       0.1561
      3  C         51.1840   12.8550   55.8170 C.2    11  LYS11       0.2260
      4  O         49.9960   12.7000   55.9960 O.2    11  LYS11      -0.2867
      5  CB        52.8470   10.9950   55.4290 C.3    11  LYS11       0.0271
      6  CG        53.6640    9.9300   56.1400 C.3    11  LYS11       0.0035
      7  CD        53.5550    8.5520   55.4910 C.3    11  LYS11       0.0206
      8  CE        54.8980    7.9360   55.7540 C.3    11  LYS11       0.1093
      9  NZ        55.7670    7.8560   54.5880 N.3    11  LYS11      -0.1314
     10  N         64.8910   10.4190   58.8100 N.3    51  TYR51      -0.1241
     11  CA        65.2160    9.4650   57.7520 C.3    51  TYR51       0.1605
     12  C         66.7250    9.2640   57.4080 C.2    51  TYR51       0.2264
     13  O         67.1760    8.9680   56.2780 O.2    51  TYR51      -0.2867
     14  CB        64.3330    9.9540   56.5690 C.3    51  TYR51       0.0534
     15  CG        62.8690    9.5090   56.6710 C.ar   51  TYR51      -0.0201
     16  CD1       62.5130    8.1560   56.8610 C.ar   51  TYR51      -0.0009
     17  CD2       61.8430   10.4480   56.4540 C.ar   51  TYR51      -0.0009
     18  CE1       61.1750    7.7170   56.9170 C.ar   51  TYR51       0.0417
     19  CE2       60.5050   10.0010   56.4300 C.ar   51  TYR51       0.0417
     20  CZ        60.1560    8.6590   56.6830 C.ar   51  TYR51       0.1957
     21  OH        58.8210    8.2590   56.6670 O.3    51  TYR51      -0.2866
     22  N         68.5700    6.3930   55.4350 N.3    54  LEU54      -0.1245
     23  CA        68.3140    6.3220   54.0280 C.3    54  LEU54       0.1561
     24  C         68.9360    7.5490   53.5310 C.2    54  LEU54       0.2260
     25  O         68.3800    8.1670   52.6390 O.2    54  LEU54      -0.2867
     26  CB        66.8180    6.5780   53.9210 C.3    54  LEU54       0.0270
     27  CG        66.1190    5.2620   54.2580 C.3    54  LEU54       0.0019
     28  CD1       66.3650    4.6810   55.6510 C.3    54  LEU54       0.0001
     29  CD2       64.6460    5.3970   53.9830 C.3    54  LEU54       0.0001
     30  N         65.8540    8.1930   46.5050 N.3    59  PHE59      -0.1241
     31  CA        64.6710    8.9660   46.8510 C.3    59  PHE59       0.1605
     32  C         64.6700    9.9340   48.0260 C.2    59  PHE59       0.2264
     33  O         63.7960   10.8330   48.0630 O.2    59  PHE59      -0.2867
     34  CB        63.4780    8.0870   47.0490 C.3    59  PHE59       0.0534
     35  CG        63.7820    7.0050   47.9780 C.ar   59  PHE59      -0.0203
     36  CD1       64.2340    5.7710   47.5320 C.ar   59  PHE59      -0.0042
     37  CD2       63.4350    7.1960   49.3050 C.ar   59  PHE59      -0.0042
     38  CE1       64.4550    4.7000   48.3890 C.ar   59  PHE59      -0.0003
     39  CE2       63.6120    6.1200   50.1680 C.ar   59  PHE59      -0.0003
     40  CZ        64.1120    4.8970   49.7240 C.ar   59  PHE59      -0.0000
     41  N         61.8160   12.5130   49.6540 N.3    63  LEU63      -0.1245
     42  CA        61.1940   12.0650   50.8940 C.3    63  LEU63       0.1561
     43  C         61.0080   13.3090   51.7060 C.2    63  LEU63       0.2260
     44  O         59.9620   13.9070   51.8890 O.2    63  LEU63      -0.2867
     45  CB        62.2340   11.1730   51.5640 C.3    63  LEU63       0.0270
     46  CG        61.5480   10.2020   52.4790 C.3    63  LEU63       0.0019
     47  CD1       60.1260   10.2110   52.0190 C.3    63  LEU63       0.0001
     48  CD2       62.0220    8.7470   52.5280 C.3    63  LEU63       0.0001
     49  N         58.7070   16.2970   50.2700 N.3    66  TYR66      -0.1241
     50  CA        57.3040   16.0370   50.3970 C.3    66  TYR66       0.1605
     51  C         56.8140   16.0410   51.8770 C.2    66  TYR66       0.2264
     52  O         55.7760   16.6140   52.2180 O.2    66  TYR66      -0.2867
     53  CB        57.3820   14.5920   50.0260 C.3    66  TYR66       0.0534
     54  CG        56.2210   13.7420   50.4890 C.ar   66  TYR66      -0.0201
     55  CD1       54.8750   13.8840   50.1250 C.ar   66  TYR66      -0.0009
     56  CD2       56.5970   12.5490   51.1060 C.ar   66  TYR66      -0.0009
     57  CE1       53.9520   12.9070   50.5260 C.ar   66  TYR66       0.0417
     58  CE2       55.6930   11.5520   51.4710 C.ar   66  TYR66       0.0417
     59  CZ        54.3420   11.7560   51.2200 C.ar   66  TYR66       0.1957
     60  OH        53.5550   10.7290   51.6400 O.3    66  TYR66      -0.2866
     61  N         52.4250   -2.5170   62.8310 N.3    87  ARG87      -0.1245
     62  CA        52.9270   -2.4530   61.4890 C.3    87  ARG87       0.1563
     63  C         52.0660   -3.3770   60.6580 C.2    87  ARG87       0.2260
     64  O         51.6830   -3.1010   59.5110 O.2    87  ARG87      -0.2867
     65  CB        54.3470   -2.9040   61.4750 C.3    87  ARG87       0.0307
     66  CG        55.2820   -1.7800   61.9310 C.3    87  ARG87       0.0489
     67  CD        56.4690   -1.7910   61.0140 C.3    87  ARG87       0.2205
     68  NE        57.0120   -0.5400   60.5980 N.pl3  87  ARG87      -0.0865
     69  CZ        57.8700   -0.9890   59.7460 C.cat  87  ARG87       0.5346
     70  NH1       57.8430   -2.3270   59.6150 N.pl3  87  ARG87       0.1354
     71  NH2       58.7140   -0.1780   59.1280 N.pl3  87  ARG87       0.1354
     72  N         55.1860   -1.6270   53.3520 N.3    93  THR93      -0.1218
     73  CA        55.6240   -0.2620   53.1530 C.3    93  THR93       0.1862
     74  C         55.1670    0.3830   51.8490 C.2    93  THR93       0.2287
     75  O         54.8350    1.5870   51.8090 O.2    93  THR93      -0.2866
     76  CB        57.0730    0.0480   53.6540 C.3    93  THR93       0.1770
     77  OG1       57.6960    1.1800   53.0490 O.3    93  THR93      -0.2211
     78  CG2       57.9820   -1.1260   53.4020 C.3    93  THR93       0.0375
     79  N         47.2720    1.0230   54.4140 N.3   104  ARG104     -0.1245
     80  CA        47.9140    1.2180   53.0970 C.3   104  ARG104      0.1563
     81  C         47.0800    0.4000   52.1150 C.2   104  ARG104      0.2260
     82  O         46.4740    0.9570   51.1790 O.2   104  ARG104     -0.2867
     83  CB        49.3700    0.7390   53.0800 C.3   104  ARG104      0.0307
     84  CG        50.2100    1.7860   53.8460 C.3   104  ARG104      0.0489
     85  CD        51.6980    1.8040   53.4520 C.3   104  ARG104      0.2205
     86  NE        52.5800    2.5920   54.3340 N.pl3 104  ARG104     -0.0865
     87  CZ        53.3420    2.0480   55.2700 C.cat 104  ARG104      0.5346
     88  NH1       53.2860    0.7070   55.4300 N.pl3 104  ARG104      0.1354
     89  NH2       54.0950    2.9010   56.0040 N.pl3 104  ARG104      0.1354
     90  N         54.2010    3.9300   47.2770 N.3   111  VAL111     -0.1231
     91  CA        55.2300    4.0250   48.3220 C.3   111  VAL111      0.1692
     92  C         55.7220    5.4500   48.2890 C.2   111  VAL111      0.2592
     93  O         56.3670    5.9070   49.1640 O.2   111  VAL111     -0.2718
     94  CB        56.4770    3.2560   47.9580 C.3   111  VAL111      0.0266
     95  CG1       57.1010    2.2420   48.9050 C.3   111  VAL111      0.0020
     96  CG2       56.2330    2.4990   46.6990 C.3   111  VAL111      0.0020
     97  N         55.4970    6.2900   47.3270 N.am  112  GLY112     -0.1957
     98  CA        56.0150    7.6330   47.5360 C.3   112  GLY112      0.1869
     99  C         54.9100    8.5000   48.1380 C.2   112  GLY112      0.2309
    100  O         54.7920    9.7510   48.3030 O.2   112  GLY112     -0.2863
    101  N         52.7730    6.9580   50.9370 N.3   114  ASN114     -0.1296
    102  CA        52.0600    5.7970   51.4390 C.3   114  ASN114      0.1339
    103  C         51.4750    6.0760   52.7830 C.3   114  ASN114      0.2014
    104  O         51.4120    5.1040   53.5270 O.3   114  ASN114     -0.2188
    105  CB        52.8870    4.5210   51.5850 C.3   114  ASN114      0.1102
    106  CG        54.1520    4.9720   52.2940 C.2   114  ASN114      0.2623
    107  OD1       54.2250    6.1990   52.5140 O.2   114  ASN114     -0.2716
    108  ND2       55.1480    4.0970   52.5390 N.am  114  ASN114     -0.0877
    109  N         53.3400    6.4600   58.6750 N.3   117  HIS117     -0.1226
    110  CA        54.6390    5.9450   58.9660 C.3   117  HIS117      0.1752
    111  C         54.4340    5.2230   60.2690 C.2   117  HIS117      0.2596
    112  O         53.6740    5.7620   61.0160 O.2   117  HIS117     -0.2718
    113  CB        55.6690    7.0510   59.3010 C.3   117  HIS117      0.0759
    114  CG        56.8170    6.3700   60.0110 C.ar  117  HIS117      0.0818
    115  ND1       57.8210    5.6600   59.3650 N.ar  117  HIS117     -0.2268
    116  CD2       57.0360    6.1740   61.3020 C.ar  117  HIS117      0.1154
    117  CE1       58.6040    5.0780   60.2620 C.ar  117  HIS117      0.1986
    118  NE2       58.1070    5.3270   61.4400 N.ar  117  HIS117     -0.2212
    119  N         55.1650    4.1400   60.5030 N.am  118  GLY118     -0.1957
    120  CA        55.1640    3.3480   61.7150 C.3   118  GLY118      0.1869
    121  C         56.6080    3.0200   62.1500 C.2   118  GLY118      0.2309
    122  O         57.4230    2.7720   61.2520 O.2   118  GLY118     -0.2863
    123  N         59.5010    0.6020   63.2300 N.3   120  ASP120     -0.1239
    124  CA        59.7850   -0.7890   62.9010 C.3   120  ASP120      0.1674
    125  C         60.2570   -1.6880   64.0510 C.2   120  ASP120      0.2266
    126  O         60.1580   -2.9630   64.1060 O.2   120  ASP120     -0.2867
    127  CB        60.9000   -0.9260   61.8520 C.3   120  ASP120      0.1410
    128  CG        61.7260    0.3110   61.6730 C.2   120  ASP120      0.3668
    129  OD1       61.3680    1.4030   62.1210 O.co2 120  ASP120     -0.2456
    130  OD2       62.8400    0.1030   60.9690 O.co2 120  ASP120     -0.2456
@<TRIPOS>BOND
     1    30    31    1
     2    96    94    1
     3    31    34    1
     4    31    32    1
     5    34    35    1
     6    90    91    1
     7    97    98    1
     8    97    92   am
     9    36    35   ar
    10    36    38   ar
    11    98    99    1
    12    94    91    1
    13    94    95    1
    14    35    37   ar
    15    32    33    2
    16    99   100    2
    17    92    91    1
    18    92    93    2
    19    38    40   ar
    20    37    39   ar
    21    41    42    1
    22    40    39   ar
    23    53    50    1
    24    53    54    1
    25    55    54   ar
    26    55    57   ar
    27    49    50    1
    28    50    51    1
    29    54    56   ar
    30    57    59   ar
    31    42    45    1
    32    42    43    1
    33   101   102    1
    34    56    58   ar
    35    82    81    2
    36    59    58   ar
    37    59    60    1
    38   102   105    1
    39   102   103    1
    40    45    46    1
    41   105   106    1
    42    43    44    2
    43    75    74    2
    44    74    73    1
    45    51    52    2
    46    47    46    1
    47    81    80    1
    48   106   107    2
    49   106   108   am
    50    46    48    1
    51    25    24    2
    52   103   104    1
    53    77    76    1
    54    83    80    1
    55    83    84    1
    56    80    79    1
    57    73    72    1
    58    73    76    1
    59    78    76    1
    60    85    84    1
    61    85    86    1
    62    24    23    1
    63    26    23    1
    64    26    27    1
    65    29    27    1
    66    23    22    1
    67    27    28    1
    68    86    87    2
    69     9     8    1
    70    87    88    1
    71    87    89    1
    72     5     6    1
    73     5     2    1
    74     7     8    1
    75     7     6    1
    76     3     4    2
    77     3     2    1
    78    13    12    2
    79     2     1    1
    80    19    17   ar
    81    19    20   ar
    82    17    15   ar
    83    14    15    1
    84    14    11    1
    85    21    20    1
    86    15    16   ar
    87    20    18   ar
    88    16    18   ar
    89    12    11    1
    90    11    10    1
    91   109   110    1
    92   110   113    1
    93   110   111    1
    94    71    69    1
    95   113   114    1
    96   115   114   ar
    97   115   117   ar
    98    64    63    2
    99    70    69    1
   100    69    68    2
   101   114   116   ar
   102   117   118   ar
   103   111   119   am
   104   111   112    2
   105   119   120    1
   106    68    67    1
   107    63    62    1
   108   130   128   ar
   109    67    66    1
   110   122   121    2
   111   116   118   ar
   112    65    62    1
   113    65    66    1
   114    62    61    1
   115   128   127    1
   116   128   129   ar
   117   120   121    1
   118   127   124    1
   119   124   123    1
   120   124   125    1
   121   125   126    2
