@<TRIPOS>MOLECULE
tmp/1bhnE00.pdb
 126 118 0 0 0
SMALL
GASTEIGER

@<TRIPOS>ATOM
      1  N         27.1150   15.4940   41.7640 N.3    11  LYS11      -0.1301
      2  CA        27.8520   16.4740   41.0380 C.3    11  LYS11       0.1247
      3  C         29.3240   16.2280   40.9900 C.3    11  LYS11       0.2009
      4  O         29.7080   15.3450   41.7450 O.3    11  LYS11      -0.2188
      5  CB        27.3690   17.8110   41.5140 C.3    11  LYS11       0.0218
      6  CG        25.8150   17.7610   41.5760 C.3    11  LYS11       0.0031
      7  CD        25.3500   19.2100   41.7140 C.3    11  LYS11       0.0205
      8  CE        23.9890   19.5290   42.2750 C.3    11  LYS11       0.1093
      9  NZ        24.0270   21.0220   42.1630 N.3    11  LYS11      -0.1314
     10  N         18.8020   23.1470   33.5770 N.3    51  TYR51      -0.1241
     11  CA        18.6550   24.1940   34.5580 C.3    51  TYR51       0.1605
     12  C         17.7970   25.2540   33.8820 C.2    51  TYR51       0.2264
     13  O         17.6900   26.4020   34.2920 O.2    51  TYR51      -0.2867
     14  CB        20.1090   24.6240   34.9330 C.3    51  TYR51       0.0534
     15  CG        20.8100   23.6520   35.8980 C.ar   51  TYR51      -0.0201
     16  CD1       20.3040   23.4340   37.1830 C.ar   51  TYR51      -0.0009
     17  CD2       21.9830   22.9620   35.5970 C.ar   51  TYR51      -0.0009
     18  CE1       20.8650   22.5630   38.1210 C.ar   51  TYR51       0.0417
     19  CE2       22.5810   22.0970   36.5150 C.ar   51  TYR51       0.0417
     20  CZ        22.0290   21.8780   37.7750 C.ar   51  TYR51       0.1957
     21  OH        22.5790   20.9510   38.6220 O.3    51  TYR51      -0.2866
     22  N         15.9560   28.6360   35.6340 N.3    54  LEU54      -0.1245
     23  CA        16.8660   29.6200   36.2150 C.3    54  LEU54       0.1561
     24  C         17.8780   29.9650   35.1830 C.2    54  LEU54       0.2260
     25  O         19.0460   30.0380   35.5500 O.2    54  LEU54      -0.2867
     26  CB        17.7490   29.2870   37.4400 C.3    54  LEU54       0.0270
     27  CG        18.4470   27.9330   37.3860 C.3    54  LEU54       0.0019
     28  CD1       19.5740   27.8320   38.4060 C.3    54  LEU54       0.0001
     29  CD2       17.4350   26.8320   37.6980 C.3    54  LEU54       0.0001
     30  N         23.6330   32.9990   38.9340 N.3    59  PHE59      -0.1241
     31  CA        24.3250   31.7500   39.0780 C.3    59  PHE59       0.1605
     32  C         24.3330   30.9350   37.7810 C.2    59  PHE59       0.2264
     33  O         25.3620   30.3300   37.4100 O.2    59  PHE59      -0.2867
     34  CB        23.9230   31.0320   40.4160 C.3    59  PHE59       0.0534
     35  CG        22.5350   30.4220   40.7530 C.ar   59  PHE59      -0.0203
     36  CD1       21.4580   31.0980   41.3360 C.ar   59  PHE59      -0.0042
     37  CD2       22.3510   29.0430   40.6450 C.ar   59  PHE59      -0.0042
     38  CE1       20.3000   30.3990   41.7100 C.ar   59  PHE59      -0.0003
     39  CE2       21.1930   28.3600   41.0070 C.ar   59  PHE59      -0.0003
     40  CZ        20.0950   29.0250   41.5350 C.ar   59  PHE59      -0.0000
     41  N         27.6250   30.2930   35.8570 N.3    62  GLY62      -0.1210
     42  CA        28.6980   29.6560   36.6460 C.3    62  GLY62       0.1956
     43  C         28.4530   28.1800   36.9810 C.2    62  GLY62       0.2611
     44  O         29.3580   27.3140   37.2030 O.2    62  GLY62      -0.2717
     45  N         27.1190   28.0140   37.0410 N.am   63  LEU63      -0.1979
     46  CA        26.4290   26.7830   37.3050 C.3    63  LEU63       0.1596
     47  C         26.7650   25.7310   36.2670 C.2    63  LEU63       0.2287
     48  O         27.0880   24.5440   36.5170 O.2    63  LEU63      -0.2864
     49  CB        24.8950   27.0710   37.3310 C.3    63  LEU63       0.0297
     50  CG        23.9930   25.8560   37.6190 C.3    63  LEU63       0.0022
     51  CD1       24.6670   24.7510   38.4720 C.3    63  LEU63       0.0001
     52  CD2       22.7050   26.3430   38.3140 C.3    63  LEU63       0.0001
     53  N         30.4290   24.9100   35.7340 N.3    66  TYR66      -0.1241
     54  CA        30.8420   24.1280   36.8510 C.3    66  TYR66       0.1605
     55  C         30.3170   22.7550   36.5920 C.2    66  TYR66       0.2264
     56  O         30.9320   21.6900   36.5560 O.2    66  TYR66      -0.2867
     57  CB        30.2370   24.6860   38.1550 C.3    66  TYR66       0.0534
     58  CG        30.0440   23.6430   39.2790 C.ar   66  TYR66      -0.0201
     59  CD1       30.9750   22.7040   39.7320 C.ar   66  TYR66      -0.0009
     60  CD2       28.8050   23.6800   39.9150 C.ar   66  TYR66      -0.0009
     61  CE1       30.6750   21.7940   40.7510 C.ar   66  TYR66       0.0417
     62  CE2       28.4540   22.7950   40.9250 C.ar   66  TYR66       0.0417
     63  CZ        29.3930   21.8440   41.3160 C.ar   66  TYR66       0.1957
     64  OH        28.9120   21.0400   42.3180 O.3    66  TYR66      -0.2866
     65  N         14.6710   13.9580   48.9090 N.3    87  ARG87      -0.1245
     66  CA        15.2180   15.3040   49.1400 C.3    87  ARG87       0.1563
     67  C         15.6360   15.5410   50.5340 C.2    87  ARG87       0.2260
     68  O         16.7020   16.1120   50.8060 O.2    87  ARG87      -0.2867
     69  CB        14.2010   16.3410   48.9620 C.3    87  ARG87       0.0307
     70  CG        14.2130   16.4170   47.4130 C.3    87  ARG87       0.0489
     71  CD        13.8630   17.8000   46.8970 C.3    87  ARG87       0.2205
     72  NE        14.6380   18.2690   45.7870 N.pl3  87  ARG87      -0.0865
     73  CZ        14.8580   19.5430   45.4940 C.cat  87  ARG87       0.5346
     74  NH1       14.4180   20.5140   46.2300 N.pl3  87  ARG87       0.1354
     75  NH2       15.5180   19.9240   44.4120 N.pl3  87  ARG87       0.1354
     76  N         19.0480   22.5430   50.0010 N.3    93  THR93      -0.1218
     77  CA        19.8780   22.8570   48.8900 C.3    93  THR93       0.1862
     78  C         21.1720   23.4250   49.4490 C.2    93  THR93       0.2287
     79  O         22.2270   22.8770   49.0930 O.2    93  THR93      -0.2866
     80  CB        18.9060   23.6530   48.0200 C.3    93  THR93       0.1770
     81  OG1       18.2620   22.7190   47.1640 O.3    93  THR93      -0.2211
     82  CG2       19.5440   24.8280   47.3100 C.3    93  THR93       0.0375
     83  N         24.3080   16.2920   52.2110 N.3   104  ARG104     -0.1241
     84  CA        25.0210   17.5220   52.3430 C.3   104  ARG104      0.1606
     85  C         25.4710   17.8310   53.7650 C.2   104  ARG104      0.2264
     86  O         26.6260   18.2900   54.0000 O.2   104  ARG104     -0.2867
     87  CB        24.0470   18.5750   51.8980 C.3   104  ARG104      0.0562
     88  CG        23.7180   18.2850   50.4330 C.2   104  ARG104      0.0159
     89  CD        23.0990   19.4390   49.6360 C.2   104  ARG104      0.1886
     90  NE        22.5090   19.1060   48.3400 N.pl3 104  ARG104     -0.0578
     91  CZ        21.2430   19.3180   48.0890 C.cat 104  ARG104      0.5393
     92  NH1       20.3590   19.8100   48.8770 N.pl3 104  ARG104      0.1358
     93  NH2       20.8520   19.0590   46.8910 N.pl3 104  ARG104      0.1358
     94  N         26.7220   26.0010   48.9330 N.3   111  VAL111     -0.1231
     95  CA        25.6390   25.8480   47.9220 C.3   111  VAL111      0.1692
     96  C         26.2990   25.5860   46.5900 C.2   111  VAL111      0.2592
     97  O         26.0850   24.5250   45.9900 O.2   111  VAL111     -0.2718
     98  CB        24.7550   27.0900   47.6530 C.3   111  VAL111      0.0266
     99  CG1       23.4540   27.0620   48.4530 C.3   111  VAL111      0.0020
    100  CG2       25.4840   28.4380   47.8230 C.3   111  VAL111      0.0020
    101  N         27.1440   26.5650   46.2540 N.am  112  GLY112     -0.1957
    102  CA        27.9140   26.4440   45.0090 C.3   112  GLY112      0.1869
    103  C         28.6220   25.0980   44.8060 C.2   112  GLY112      0.2309
    104  O         29.0230   24.7700   43.6830 O.2   112  GLY112     -0.2863
    105  N         27.4770   21.8590   46.1090 N.3   114  ASN114     -0.1296
    106  CA        26.6820   20.9960   46.8620 C.3   114  ASN114      0.1339
    107  C         26.5930   19.5460   46.6200 C.3   114  ASN114      0.2014
    108  O         25.5690   19.0070   47.0600 O.3   114  ASN114     -0.2188
    109  CB        25.4680   21.6230   47.5260 C.3   114  ASN114      0.1102
    110  CG        24.7100   21.8530   46.2750 C.2   114  ASN114      0.2623
    111  OD1       25.3670   21.4310   45.3450 O.2   114  ASN114     -0.2716
    112  ND2       23.4210   22.2940   46.2100 N.am  114  ASN114     -0.0877
    113  N         22.2610   16.3960   43.4680 N.3   117  HIS117     -0.1226
    114  CA        20.9600   16.8500   43.0010 C.3   117  HIS117      0.1752
    115  C         20.1030   15.6470   42.9130 C.2   117  HIS117      0.2596
    116  O         20.4840   14.6150   42.2770 O.2   117  HIS117     -0.2718
    117  CB        20.9340   17.2990   41.5110 C.3   117  HIS117      0.0759
    118  CG        19.6100   17.6040   40.9090 C.ar  117  HIS117      0.0818
    119  ND1       19.1420   18.8990   40.8350 N.ar  117  HIS117     -0.2268
    120  CD2       18.6610   16.7210   40.4100 C.ar  117  HIS117      0.1154
    121  CE1       17.8960   18.7720   40.3400 C.ar  117  HIS117      0.1986
    122  NE2       17.5580   17.4790   40.0930 N.ar  117  HIS117     -0.2212
    123  N         18.9500   16.0340   43.5020 N.am  118  GLY118     -0.1957
    124  CA        17.7460   15.2260   43.5790 C.3   118  GLY118      0.1869
    125  C         16.5390   15.9830   43.0070 C.2   118  GLY118      0.2309
    126  O         16.3550   17.2000   43.2570 O.2   118  GLY118     -0.2863
@<TRIPOS>BOND
     1    10    11    1
     2    12    13    2
     3    12    11    1
     4    11    14    1
     5    14    15    1
     6    24    25    2
     7    24    23    1
     8    17    15   ar
     9    17    19   ar
    10    22    23    1
    11    53    54    1
    12    41    42    1
    13    15    16   ar
    14    23    26    1
    15    47    48    2
    16    47    46    1
    17    19    20   ar
    18    56    55    2
    19    55    54    1
    20    42    43    1
    21    54    57    1
    22    43    45   am
    23    43    44    2
    24    45    46    1
    25    16    18   ar
    26    46    49    1
    27    49    50    1
    28    27    26    1
    29    27    29    1
    30    27    28    1
    31    33    32    2
    32    50    52    1
    33    50    51    1
    34    20    18   ar
    35    20    21    1
    36    32    31    1
    37    57    58    1
    38    30    31    1
    39    31    34    1
    40    58    59   ar
    41    58    60   ar
    42    59    61   ar
    43    60    62   ar
    44   122   121   ar
    45   122   120   ar
    46   121   119   ar
    47   120   118   ar
    48    34    35    1
    49    37    35   ar
    50    37    39   ar
    51    61    63   ar
    52    35    36   ar
    53   119   118   ar
    54   118   117    1
    55    62    63   ar
    56     3     2    1
    57     3     4    1
    58    39    40   ar
    59     2     5    1
    60     2     1    1
    61    63    64    1
    62    36    38   ar
    63   117   114    1
    64     5     6    1
    65    40    38   ar
    66     6     7    1
    67     7     8    1
    68     9     8    1
    69   116   115    2
    70   115   114    1
    71   115   123   am
    72   114   113    1
    73   125   126    2
    74   125   124    1
    75   123   124    1
    76   104   103    2
    77    75    73    1
    78   103   102    1
    79   102   101    1
    80   111   110    2
    81    73    72    2
    82    73    74    1
    83    72    71    1
    84    97    96    2
    85   105   106    1
    86   112   110   am
    87   101    96   am
    88   110   109    1
    89    96    95    1
    90   107   106    1
    91   107   108    1
    92   106   109    1
    93    93    91    1
    94    71    70    1
    95    81    80    1
    96    82    80    1
    97    70    69    1
    98    98   100    1
    99    98    95    1
   100    98    99    1
   101    95    94    1
   102    80    77    1
   103    91    90    2
   104    91    92    1
   105    90    89    1
   106    77    78    1
   107    77    76    1
   108    65    66    1
   109    69    66    1
   110    79    78    2
   111    66    67    1
   112    89    88    2
   113    88    87    1
   114    67    68    2
   115    87    84    1
   116    83    84    1
   117    84    85    1
   118    85    86    2
