@<TRIPOS>MOLECULE
tmp/1bhnB00.pdb
 133 123 0 0 0
SMALL
GASTEIGER

@<TRIPOS>ATOM
      1  N         32.2720  -12.9830   73.9570 N.3    11  LYS11      -0.1245
      2  CA        32.8260  -12.9420   75.3130 C.3    11  LYS11       0.1565
      3  C         32.4390  -11.6230   75.9100 C.2    11  LYS11       0.2260
      4  O         32.0490  -10.7020   75.1810 O.2    11  LYS11      -0.2867
      5  CB        34.3470  -13.1320   75.2400 C.3    11  LYS11       0.0317
      6  CG        34.5140  -14.5420   74.6680 C.3    11  LYS11       0.0294
      7  CD        35.8940  -15.1400   74.9450 C.2    11  LYS11      -0.0067
      8  CE        36.3350  -16.3090   74.0200 C.2    11  LYS11       0.1012
      9  NZ        37.4800  -17.1210   74.4940 N.pl3  11  LYS11      -0.1270
     10  N         34.4410  -25.8090   78.1630 N.3    51  TYR51      -0.1298
     11  CA        35.8880  -25.8370   78.0430 C.3    51  TYR51       0.1290
     12  C         36.6600  -27.1420   78.3090 C.3    51  TYR51       0.2013
     13  O         37.9480  -27.1430   78.3240 O.3    51  TYR51      -0.2188
     14  CB        36.5840  -24.6090   78.6120 C.3    51  TYR51       0.0480
     15  CG        36.4020  -23.4550   77.7020 C.ar   51  TYR51      -0.0204
     16  CD1       36.9290  -23.4960   76.4110 C.ar   51  TYR51      -0.0009
     17  CD2       35.7200  -22.3150   78.1260 C.ar   51  TYR51      -0.0009
     18  CE1       36.8310  -22.4300   75.5130 C.ar   51  TYR51       0.0417
     19  CE2       35.6530  -21.2210   77.2520 C.ar   51  TYR51       0.0417
     20  CZ        36.1520  -21.2950   75.9420 C.ar   51  TYR51       0.1957
     21  OH        36.0830  -20.3130   74.9780 O.3    51  TYR51      -0.2866
     22  N         40.5450  -28.4650   77.5240 N.3    54  LEU54      -0.1245
     23  CA        41.5700  -27.7490   78.3060 C.3    54  LEU54       0.1561
     24  C         41.5230  -27.8920   79.9550 C.2    54  LEU54       0.2260
     25  O         42.2260  -27.2340   80.7980 O.2    54  LEU54      -0.2867
     26  CB        41.4040  -26.3120   77.7240 C.3    54  LEU54       0.0270
     27  CG        41.8230  -25.9690   76.2710 C.3    54  LEU54       0.0019
     28  CD1       41.5410  -24.5230   75.8310 C.3    54  LEU54       0.0001
     29  CD2       43.3160  -26.1440   76.0720 C.3    54  LEU54       0.0001
     30  N         45.0070  -27.4450   82.3180 N.3    57  ARG57      -0.1245
     31  CA        45.7740  -26.3550   81.6980 C.3    57  ARG57       0.1563
     32  C         45.5490  -25.0170   82.4480 C.2    57  ARG57       0.2260
     33  O         44.4470  -24.4490   82.4730 O.2    57  ARG57      -0.2867
     34  CB        45.3480  -26.2220   80.2110 C.3    57  ARG57       0.0307
     35  CG        46.2960  -25.3230   79.4060 C.3    57  ARG57       0.0489
     36  CD        46.5880  -25.7820   77.9600 C.3    57  ARG57       0.2205
     37  NE        47.7200  -25.0140   77.3870 N.pl3  57  ARG57      -0.0865
     38  CZ        48.0210  -24.8920   76.0840 C.cat  57  ARG57       0.5346
     39  NH1       47.2890  -25.4900   75.1360 N.pl3  57  ARG57       0.1354
     40  NH2       49.0580  -24.1680   75.6290 N.pl3  57  ARG57       0.1354
     41  N         45.6750  -22.1560   82.4500 N.3    59  PHE59      -0.1241
     42  CA        44.8750  -20.9740   82.2230 C.3    59  PHE59       0.1605
     43  C         43.4460  -21.2360   82.6280 C.2    59  PHE59       0.2264
     44  O         42.7970  -20.2700   83.1200 O.2    59  PHE59      -0.2867
     45  CB        45.0880  -20.2720   80.8470 C.3    59  PHE59       0.0534
     46  CG        44.9380  -21.1010   79.5700 C.ar   59  PHE59      -0.0203
     47  CD1       43.6960  -21.4230   79.0040 C.ar   59  PHE59      -0.0042
     48  CD2       46.0660  -21.5920   78.9150 C.ar   59  PHE59      -0.0042
     49  CE1       43.5340  -22.1900   77.8410 C.ar   59  PHE59      -0.0003
     50  CE2       45.9470  -22.3910   77.7670 C.ar   59  PHE59      -0.0003
     51  CZ        44.6840  -22.7040   77.2470 C.ar   59  PHE59      -0.0000
     52  N         41.2810  -19.9380   85.2180 N.3    62  GLY62      -0.1210
     53  CA        41.3900  -18.4640   85.1040 C.3    62  GLY62       0.1956
     54  C         40.3890  -17.8750   84.0820 C.2    62  GLY62       0.2611
     55  O         39.8580  -16.7330   84.1420 O.2    62  GLY62      -0.2717
     56  N         40.2360  -18.7740   83.1020 N.am   63  LEU63      -0.1979
     57  CA        39.3470  -18.7220   81.9960 C.3    63  LEU63       0.1596
     58  C         37.9330  -18.8070   82.5330 C.2    63  LEU63       0.2287
     59  O         37.0370  -17.9180   82.5150 O.2    63  LEU63      -0.2864
     60  CB        39.6370  -20.0610   81.2670 C.3    63  LEU63       0.0297
     61  CG        38.9740  -20.2310   79.8790 C.3    63  LEU63       0.0022
     62  CD1       38.7620  -18.8380   79.2770 C.3    63  LEU63       0.0001
     63  CD2       39.6140  -21.2550   78.9170 C.3    63  LEU63       0.0001
     64  N         35.6050  -19.4230   61.4990 N.3    87  ARG87      -0.1245
     65  CA        36.9220  -19.3310   62.0780 C.3    87  ARG87       0.1563
     66  C         37.7270  -18.2100   61.4940 C.2    87  ARG87       0.2260
     67  O         38.2540  -17.3320   62.2150 O.2    87  ARG87      -0.2867
     68  CB        37.5050  -20.6740   61.7450 C.3    87  ARG87       0.0307
     69  CG        36.8210  -21.7460   62.5960 C.3    87  ARG87       0.0489
     70  CD        37.0970  -21.4550   64.0800 C.3    87  ARG87       0.2205
     71  NE        37.7930  -22.4250   64.9360 N.pl3  87  ARG87      -0.0865
     72  CZ        38.7680  -22.0230   65.7590 C.cat  87  ARG87       0.5346
     73  NH1       39.0730  -20.6800   65.6990 N.pl3  87  ARG87       0.1354
     74  NH2       39.3590  -22.9810   66.5450 N.pl3  87  ARG87       0.1354
     75  N         42.8070  -17.3300   67.1680 N.3    93  THR93      -0.1218
     76  CA        42.5790  -17.2610   68.6020 C.3    93  THR93       0.1862
     77  C         43.4980  -16.2730   69.3400 C.2    93  THR93       0.2287
     78  O         43.0440  -15.5320   70.2540 O.2    93  THR93      -0.2866
     79  CB        42.7830  -18.6800   69.1300 C.3    93  THR93       0.1770
     80  OG1       41.7220  -19.6200   68.9510 O.3    93  THR93      -0.2211
     81  CG2       43.2070  -18.3920   70.5440 C.3    93  THR93       0.0375
     82  N         39.0560  -10.5090   65.6030 N.3   104  ARG104     -0.1197
     83  CA        40.1280  -10.3240   66.5460 C.3   104  ARG104      0.1779
     84  C         41.0800   -9.3860   65.8640 C.2   104  ARG104      0.2305
     85  O         41.4100   -8.3510   66.4120 O.2   104  ARG104     -0.2863
     86  CB        40.8530  -11.6090   66.9390 C.2   104  ARG104     -0.0007
     87  CG        39.9590  -12.7890   67.3540 C.2   104  ARG104      0.0176
     88  CD        40.5850  -14.0010   68.0770 C.3   104  ARG104      0.2464
     89  NE        39.4800  -14.5850   68.7920 N.pl3 104  ARG104     -0.0815
     90  CZ        39.1560  -15.8580   68.6190 C.cat 104  ARG104      0.5349
     91  NH1       39.9140  -16.4980   67.7590 N.pl3 104  ARG104      0.1354
     92  NH2       38.1170  -16.4610   69.2280 N.pl3 104  ARG104      0.1354
     93  N         45.1080  -12.7470   73.9300 N.3   111  VAL111     -0.1231
     94  CA        44.4150  -14.0410   73.8900 C.3   111  VAL111      0.1692
     95  C         43.4700  -14.3840   75.0730 C.2   111  VAL111      0.2592
     96  O         42.6610  -15.3430   75.0410 O.2   111  VAL111     -0.2718
     97  CB        45.5640  -15.0670   73.8650 C.3   111  VAL111      0.0266
     98  CG1       45.2670  -16.4770   73.3140 C.3   111  VAL111      0.0020
     99  CG2       46.9370  -14.4230   73.6630 C.3   111  VAL111      0.0020
    100  N         43.6730  -13.6070   76.1460 N.am  112  GLY112     -0.1957
    101  CA        42.9290  -13.7740   77.3730 C.3   112  GLY112      0.1869
    102  C         41.6610  -12.9700   77.2260 C.2   112  GLY112      0.2309
    103  O         40.4990  -13.3110   77.5940 O.2   112  GLY112     -0.2863
    104  N         40.0050  -12.3760   74.2960 N.3   114  ASN114     -0.1240
    105  CA        39.7510  -12.7900   72.8710 C.3   114  ASN114      0.1653
    106  C         38.4090  -12.5820   72.0750 C.2   114  ASN114      0.2266
    107  O         38.3340  -12.8680   70.9390 O.2   114  ASN114     -0.2867
    108  CB        40.8840  -13.6100   72.1630 C.3   114  ASN114      0.1155
    109  CG        40.3910  -15.0370   72.3450 C.2   114  ASN114      0.2627
    110  OD1       39.2190  -15.1850   72.6660 O.2   114  ASN114     -0.2716
    111  ND2       41.1540  -16.1030   72.0800 N.am  114  ASN114     -0.0877
    112  N         34.6580  -16.5520   70.4390 N.3   117  HIS117     -0.1226
    113  CA        35.0310  -17.9260   70.2830 C.3   117  HIS117      0.1752
    114  C         34.1580  -18.4680   69.1780 C.2   117  HIS117      0.2596
    115  O         33.0450  -17.9380   69.0080 O.2   117  HIS117     -0.2718
    116  CB        34.3640  -18.6820   71.4180 C.3   117  HIS117      0.0759
    117  CG        34.1330  -20.1480   71.1970 C.ar  117  HIS117      0.0818
    118  ND1       35.1950  -21.0430   71.0620 N.ar  117  HIS117     -0.2268
    119  CD2       32.9430  -20.9100   71.1790 C.ar  117  HIS117      0.1154
    120  CE1       34.6130  -22.2790   70.9300 C.ar  117  HIS117      0.1986
    121  NE2       33.2630  -22.2700   71.0220 N.ar  117  HIS117     -0.2212
    122  N         34.7180  -19.5110   68.5320 N.am  118  GLY118     -0.1957
    123  CA        34.0290  -20.2390   67.4810 C.3   118  GLY118      0.1869
    124  C         34.2880  -21.7390   67.3390 C.2   118  GLY118      0.2309
    125  O         35.4520  -22.1850   67.5050 O.2   118  GLY118     -0.2863
    126  N         35.3650  -25.1620   66.5040 N.3   120  ASP120     -0.1239
    127  CA        36.4570  -25.3420   65.5480 C.3   120  ASP120      0.1674
    128  C         36.2280  -26.6290   64.7620 C.2   120  ASP120      0.2266
    129  O         37.0600  -27.3490   64.2580 O.2   120  ASP120     -0.2867
    130  CB        37.7510  -25.4070   66.3980 C.3   120  ASP120      0.1410
    131  CG        37.9690  -26.8180   66.8820 C.2   120  ASP120      0.3668
    132  OD1       37.1710  -27.7410   67.0350 O.co2 120  ASP120     -0.2456
    133  OD2       39.2400  -26.9240   67.1270 O.co2 120  ASP120     -0.2456
@<TRIPOS>BOND
     1    66    65    1
     2    66    67    2
     3    64    65    1
     4    68    65    1
     5    68    69    1
     6    69    70    1
     7    70    71    1
     8   129   128    2
     9   128   127    1
    10    71    72    2
    11   127   130    1
    12   127   126    1
    13    82    83    1
    14    73    72    1
    15    72    74    1
    16    84    85    2
    17    84    83    1
    18   130   131    1
    19    83    86    1
    20   131   132   ar
    21   131   133   ar
    22    86    87    2
    23    75    76    1
    24   124   123    1
    25   124   125    2
    26    87    88    1
    27   123   122    1
    28    91    90    1
    29    88    89    1
    30   122   114   am
    31    76    79    1
    32    76    77    1
    33    90    89    2
    34    90    92    1
    35    80    79    1
    36   115   114    2
    37    79    81    1
    38   114   113    1
    39    77    78    2
    40   113   112    1
    41   113   116    1
    42   120   121   ar
    43   120   118   ar
    44   107   106    2
    45   121   119   ar
    46   118   117   ar
    47   119   117   ar
    48   117   116    1
    49   106   105    1
    50   111   109   am
    51   108   109    1
    52   108   105    1
    53   109   110    2
    54   105   104    1
    55    98    97    1
    56    99    97    1
    57    97    94    1
    58    94    93    1
    59    94    95    1
    60     1     2    1
    61     8     9    1
    62     8     7    2
    63     6     7    1
    64     6     5    1
    65    21    20    1
    66    96    95    2
    67    95   100   am
    68    39    38    1
    69     4     3    2
    70     5     2    1
    71     2     3    1
    72    18    20   ar
    73    18    16   ar
    74    40    38    1
    75    28    27    1
    76    20    19   ar
    77    29    27    1
    78    38    37    2
    79   100   101    1
    80    27    26    1
    81    16    15   ar
    82   102   101    1
    83   102   103    2
    84    51    50   ar
    85    51    49   ar
    86    19    17   ar
    87    37    36    1
    88    22    23    1
    89    15    17   ar
    90    15    14    1
    91    26    23    1
    92    50    48   ar
    93    49    47   ar
    94    36    35    1
    95    11    10    1
    96    11    12    1
    97    11    14    1
    98    23    24    1
    99    12    13    1
   100    48    46   ar
   101    63    61    1
   102    47    46   ar
   103    62    61    1
   104    35    34    1
   105    46    45    1
   106    61    60    1
   107    24    25    2
   108    34    31    1
   109    45    42    1
   110    60    57    1
   111    31    30    1
   112    31    32    1
   113    57    58    1
   114    57    56    1
   115    42    41    1
   116    42    43    1
   117    32    33    2
   118    59    58    2
   119    43    44    2
   120    56    54   am
   121    54    55    2
   122    54    53    1
   123    53    52    1
