@<TRIPOS>MOLECULE
tmp/1bhnD00.pdb
 148 140 0 0 0
SMALL
GASTEIGER

@<TRIPOS>ATOM
      1  N         12.0120   -6.1940   64.1140 N.3    11  LYS11      -0.1245
      2  CA        11.0170   -6.7260   63.1930 C.3    11  LYS11       0.1561
      3  C         11.6070   -7.7320   62.2080 C.2    11  LYS11       0.2260
      4  O         12.8080   -7.7740   61.7830 O.2    11  LYS11      -0.2867
      5  CB        10.0690   -5.6870   62.6280 C.3    11  LYS11       0.0271
      6  CG         9.2090   -5.2950   63.8110 C.3    11  LYS11       0.0035
      7  CD         8.8850   -3.8030   63.7980 C.3    11  LYS11       0.0206
      8  CE         7.4390   -3.6550   64.2310 C.3    11  LYS11       0.1093
      9  NZ         7.0620   -2.2900   63.9150 N.3    11  LYS11      -0.1314
     10  N          0.2660   -6.3720   71.3050 N.3    51  TYR51      -0.1241
     11  CA        -0.2220   -5.1840   70.5890 C.3    51  TYR51       0.1605
     12  C         -1.7060   -4.8320   70.7540 C.2    51  TYR51       0.2264
     13  O         -2.4170   -4.4620   69.8140 O.2    51  TYR51      -0.2867
     14  CB         0.0120   -5.4520   69.1000 C.3    51  TYR51       0.0534
     15  CG         1.3310   -4.9790   68.5340 C.ar   51  TYR51      -0.0201
     16  CD1        1.6930   -3.6300   68.5600 C.ar   51  TYR51      -0.0009
     17  CD2        2.1870   -5.8890   67.9070 C.ar   51  TYR51      -0.0009
     18  CE1        2.9360   -3.2210   68.0680 C.ar   51  TYR51       0.0417
     19  CE2        3.3710   -5.4840   67.3000 C.ar   51  TYR51       0.0417
     20  CZ         3.7340   -4.1450   67.3850 C.ar   51  TYR51       0.1957
     21  OH         4.9130   -3.8660   66.7310 O.3    51  TYR51      -0.2866
     22  N         -4.0340   -1.5500   70.2390 N.3    54  LEU54      -0.1245
     23  CA        -4.3270   -1.5950   68.8050 C.3    54  LEU54       0.1561
     24  C         -5.3190   -2.6350   68.3630 C.2    54  LEU54       0.2260
     25  O         -5.5040   -2.8000   67.1800 O.2    54  LEU54      -0.2867
     26  CB        -3.0310   -1.9100   68.0470 C.3    54  LEU54       0.0270
     27  CG        -2.3150   -0.5570   68.0930 C.3    54  LEU54       0.0019
     28  CD1       -1.1770   -0.3230   67.0650 C.3    54  LEU54       0.0001
     29  CD2       -3.3620    0.5670   68.1760 C.3    54  LEU54       0.0001
     30  N         -7.8440   -1.8920   65.1380 N.3    57  ARG57      -0.1245
     31  CA        -7.1730   -1.2850   63.9840 C.3    57  ARG57       0.1563
     32  C         -7.1880   -2.0190   62.6270 C.2    57  ARG57       0.2260
     33  O         -6.7240   -3.1700   62.4750 O.2    57  ARG57      -0.2867
     34  CB        -5.7770   -0.6680   64.2420 C.3    57  ARG57       0.0307
     35  CG        -5.6850    0.4210   65.3110 C.3    57  ARG57       0.0489
     36  CD        -6.5420    1.6820   65.2390 C.3    57  ARG57       0.2205
     37  NE        -5.7040    2.6140   64.5360 N.pl3  57  ARG57      -0.0865
     38  CZ        -5.3200    3.8220   64.8370 C.cat  57  ARG57       0.5346
     39  NH1       -5.7820    4.4250   65.9270 N.pl3  57  ARG57       0.1354
     40  NH2       -4.4800    4.3770   63.9460 N.pl3  57  ARG57       0.1354
     41  N         -5.2870   -2.3620   60.3290 N.3    59  PHE59      -0.1241
     42  CA        -4.1230   -3.2040   60.2150 C.3    59  PHE59       0.1605
     43  C         -4.0500   -4.4020   61.1240 C.2    59  PHE59       0.2264
     44  O         -3.8470   -5.5180   60.6360 O.2    59  PHE59      -0.2867
     45  CB        -2.8050   -2.4650   60.0440 C.3    59  PHE59       0.0534
     46  CG        -2.7580   -1.3530   61.0350 C.ar   59  PHE59      -0.0203
     47  CD1       -3.5660   -0.2250   60.8350 C.ar   59  PHE59      -0.0042
     48  CD2       -1.8660   -1.3840   62.1200 C.ar   59  PHE59      -0.0042
     49  CE1       -3.5190    0.8660   61.7150 C.ar   59  PHE59      -0.0003
     50  CE2       -1.8450   -0.3240   63.0440 C.ar   59  PHE59      -0.0003
     51  CZ        -2.6630    0.7980   62.8280 C.ar   59  PHE59      -0.0000
     52  N         -3.0700   -8.1420   60.6080 N.3    62  GLY62      -0.1210
     53  CA        -2.0990   -8.0400   59.5420 C.3    62  GLY62       0.1956
     54  C         -0.7400   -7.7800   60.1770 C.2    62  GLY62       0.2611
     55  O          0.3010   -8.3710   59.8430 O.2    62  GLY62      -0.2717
     56  N         -0.8940   -6.9070   61.1630 N.am   63  LEU63      -0.1979
     57  CA         0.1360   -6.5430   62.1040 C.3    63  LEU63       0.1596
     58  C          0.4720   -7.8090   62.8200 C.2    63  LEU63       0.2287
     59  O          1.5460   -8.2000   63.1060 O.2    63  LEU63      -0.2864
     60  CB        -0.4780   -5.7360   63.2400 C.3    63  LEU63       0.0297
     61  CG         0.6720   -5.0910   64.0040 C.3    63  LEU63       0.0022
     62  CD1        2.0100   -5.3300   63.2960 C.3    63  LEU63       0.0001
     63  CD2        0.4300   -3.6010   64.3760 C.3    63  LEU63       0.0001
     64  N          2.0460  -10.5660   60.0710 N.3    66  TYR66      -0.1241
     65  CA         3.3830  -10.1670   59.6750 C.3    66  TYR66       0.1605
     66  C          4.4490  -10.4060   60.7480 C.2    66  TYR66       0.2264
     67  O          5.5840  -10.9190   60.5180 O.2    66  TYR66      -0.2867
     68  CB         3.3300   -8.6850   59.3430 C.3    66  TYR66       0.0534
     69  CG         4.5620   -7.8260   59.4740 C.ar   66  TYR66      -0.0201
     70  CD1        5.8450   -8.0970   58.9890 C.ar   66  TYR66      -0.0009
     71  CD2        4.3740   -6.5660   60.0530 C.ar   66  TYR66      -0.0009
     72  CE1        6.8620   -7.1410   59.1460 C.ar   66  TYR66       0.0417
     73  CE2        5.3860   -5.6110   60.2190 C.ar   66  TYR66       0.0417
     74  CZ         6.6870   -5.8870   59.7720 C.ar   66  TYR66       0.1957
     75  OH         7.6790   -4.8650   59.9840 O.3    66  TYR66      -0.2866
     76  N         13.4770    6.2820   71.5430 N.3    87  ARG87      -0.1301
     77  CA        12.4830    6.5810   70.5640 C.3    87  ARG87       0.1248
     78  C         12.9300    7.5780   69.5250 C.3    87  ARG87       0.2009
     79  O         12.4120    7.3510   68.4310 O.3    87  ARG87      -0.2188
     80  CB        11.2440    7.1940   71.1880 C.3    87  ARG87       0.0254
     81  CG        10.1480    6.2660   71.7490 C.3    87  ARG87       0.0485
     82  CD        10.0340    4.8250   71.2930 C.3    87  ARG87       0.2205
     83  NE         8.6500    4.4680   70.9470 N.pl3  87  ARG87      -0.0865
     84  CZ         7.7570    5.0160   70.1250 C.cat  87  ARG87       0.5346
     85  NH1        7.9420    6.0600   69.3170 N.pl3  87  ARG87       0.1354
     86  NH2        6.6090    4.3750   70.1470 N.pl3  87  ARG87       0.1354
     87  N          7.3670    6.6970   63.5430 N.3    93  THR93      -0.1218
     88  CA         6.7130    5.4250   63.3840 C.3    93  THR93       0.1862
     89  C          6.5330    4.9450   61.9260 C.2    93  THR93       0.2287
     90  O          6.6030    3.7650   61.5210 O.2    93  THR93      -0.2866
     91  CB         5.4220    5.6250   64.1860 C.3    93  THR93       0.1770
     92  OG1        5.2940    4.4790   64.9670 O.3    93  THR93      -0.2211
     93  CG2        4.2120    5.4500   63.3130 C.3    93  THR93       0.0375
     94  N         14.8890    4.5620   61.4480 N.3   104  ARG104     -0.1245
     95  CA        13.8770    4.3450   60.4350 C.3   104  ARG104      0.1563
     96  C         14.1580    5.2430   59.3120 C.2   104  ARG104      0.2260
     97  O         13.7220    4.9850   58.2260 O.2   104  ARG104     -0.2867
     98  CB        12.4160    4.5410   60.9010 C.3   104  ARG104      0.0307
     99  CG        11.9610    3.3160   61.7350 C.3   104  ARG104      0.0489
    100  CD        10.5840    3.5280   62.2910 C.3   104  ARG104      0.2205
    101  NE        10.1720    2.4650   63.1880 N.pl3 104  ARG104     -0.0865
    102  CZ         9.5240    2.7920   64.3140 C.cat 104  ARG104      0.5346
    103  NH1        9.2780    4.0600   64.6210 N.pl3 104  ARG104      0.1354
    104  NH2        9.0080    1.8550   65.0840 N.pl3 104  ARG104      0.1354
    105  N          5.6360    1.9930   56.5460 N.3   111  VAL111     -0.1231
    106  CA         5.1020    1.7590   57.8600 C.3   111  VAL111      0.1692
    107  C          4.8250    0.3160   58.1160 C.2   111  VAL111      0.2593
    108  O          5.0180   -0.1980   59.2140 O.2   111  VAL111     -0.2718
    109  CB         3.7440    2.3750   58.0370 C.3   111  VAL111      0.0266
    110  CG1        3.8050    3.0310   59.4060 C.3   111  VAL111      0.0020
    111  CG2        3.6460    3.4100   56.9520 C.3   111  VAL111      0.0020
    112  N          4.2660   -0.3200   57.1060 N.am  112  GLY112     -0.1942
    113  CA         3.8260   -1.7220   57.2900 C.3   112  GLY112      0.2014
    114  C          4.9950   -2.6250   57.4700 C.2   112  GLY112      0.2639
    115  O          4.7400   -3.7800   57.6540 O.2   112  GLY112     -0.2714
    116  N          6.2130   -2.0840   57.2940 N.am  113  ARG113     -0.1963
    117  CA         7.4760   -2.8090   57.4250 C.3   113  ARG113      0.1729
    118  C          8.4370   -1.8140   58.0980 C.2   113  ARG113      0.2616
    119  O          9.2970   -1.2850   57.3820 O.2   113  ARG113     -0.2715
    120  CB         8.0400   -3.1580   56.0550 C.3   113  ARG113      0.0348
    121  CG         7.0940   -4.0210   55.2480 C.3   113  ARG113      0.0492
    122  CD         7.1590   -5.5680   55.3870 C.3   113  ARG113      0.2205
    123  NE         5.8550   -6.0040   55.9050 N.pl3 113  ARG113     -0.0865
    124  CZ         4.7800   -6.6220   55.4280 C.cat 113  ARG113      0.5346
    125  NH1        4.5420   -7.1400   54.2430 N.pl3 113  ARG113      0.1354
    126  NH2        3.7950   -6.7060   56.2800 N.pl3 113  ARG113      0.1354
    127  N          8.3540   -1.4580   59.4130 N.am  114  ASN114     -0.1972
    128  CA         9.3350   -0.4200   59.7960 C.3   114  ASN114      0.1688
    129  C         10.4040   -0.9280   60.8060 C.2   114  ASN114      0.2292
    130  O         10.7630   -0.1960   61.7450 O.2   114  ASN114     -0.2864
    131  CB         8.4600    0.7810   60.1730 C.3   114  ASN114      0.1181
    132  CG         7.8220    0.2650   61.5180 C.2   114  ASN114      0.2629
    133  OD1        7.9110   -0.9420   61.9290 O.2   114  ASN114     -0.2716
    134  ND2        7.0670    1.1110   62.2360 N.am  114  ASN114     -0.0877
    135  N         10.6000   -1.6190   66.5810 N.3   117  HIS117     -0.1226
    136  CA         9.6490   -1.2880   67.6020 C.3   117  HIS117      0.1752
    137  C         10.4580   -0.9340   68.8730 C.2   117  HIS117      0.2596
    138  O         11.2490   -1.8490   69.2640 O.2   117  HIS117     -0.2718
    139  CB         8.8120   -2.5340   68.0130 C.3   117  HIS117      0.0759
    140  CG         8.0570   -2.1240   69.2730 C.ar  117  HIS117      0.0818
    141  ND1        7.1500   -1.0520   69.3020 N.ar  117  HIS117     -0.2268
    142  CD2        8.1980   -2.5310   70.5780 C.ar  117  HIS117      0.1154
    143  CE1        6.7110   -0.9120   70.5640 C.ar  117  HIS117      0.1986
    144  NE2        7.3760   -1.7460   71.3420 N.ar  117  HIS117     -0.2212
    145  N         10.1370    0.3080   69.4300 N.am  118  GLY118     -0.1957
    146  CA        10.5520    0.9800   70.7070 C.3   118  GLY118      0.1869
    147  C          9.3890    1.1000   71.7280 C.2   118  GLY118      0.2309
    148  O          8.2270    1.3090   71.3880 O.2   118  GLY118     -0.2863
@<TRIPOS>BOND
     1   125   124    1
     2   121   122    1
     3   121   120    1
     4   122   123    1
     5   124   123    2
     6   124   126    1
     7   120   117    1
     8   105   106    1
     9   111   109    1
    10   112   113    1
    11   112   107   am
    12   113   114    1
    13   116   117    1
    14   116   114   am
    15   119   118    2
    16   117   118    1
    17   114   115    2
    18   106   109    1
    19   106   107    1
    20   109   110    1
    21   118   127   am
    22   107   108    2
    23    97    96    2
    24    70    72   ar
    25    70    69   ar
    26    72    74   ar
    27    96    95    1
    28    68    69    1
    29    68    65    1
    30   127   128    1
    31    69    71   ar
    32    53    54    1
    33    53    52    1
    34    65    64    1
    35    65    66    1
    36    74    75    1
    37    74    73   ar
    38   128   131    1
    39   128   129    1
    40    55    54    2
    41    45    42    1
    42    45    46    1
    43    71    73   ar
    44   131   132    1
    45    54    56   am
    46    42    41    1
    47    42    43    1
    48    95    98    1
    49    95    94    1
    50    67    66    2
    51    44    43    2
    52   129   130    2
    53    47    46   ar
    54    47    49   ar
    55    98    99    1
    56    46    48   ar
    57    56    57    1
    58   132   133    2
    59   132   134   am
    60    90    89    2
    61    49    51   ar
    62    99   100    1
    63     4     3    2
    64    89    88    1
    65    57    58    1
    66    57    60    1
    67    48    50   ar
    68     3     2    1
    69   100   101    1
    70    33    32    2
    71    32    31    1
    72     5     2    1
    73     5     6    1
    74    58    59    2
    75    51    50   ar
    76   101   102    2
    77     2     1    1
    78    60    61    1
    79    62    61    1
    80    93    91    1
    81    88    87    1
    82    88    91    1
    83     7     6    1
    84     7     8    1
    85     9     8    1
    86    40    38    1
    87    31    34    1
    88    31    30    1
    89    61    63    1
    90    91    92    1
    91    34    35    1
    92   102   103    1
    93   102   104    1
    94    37    38    2
    95    37    36    1
    96    38    39    1
    97    36    35    1
    98   135   136    1
    99    21    20    1
   100    28    27    1
   101    25    24    2
   102    19    20   ar
   103    19    17   ar
   104    20    18   ar
   105   136   139    1
   106   136   137    1
   107    17    15   ar
   108   139   140    1
   109    26    27    1
   110    26    23    1
   111    18    16   ar
   112    27    29    1
   113    24    23    1
   114    79    78    1
   115    15    16   ar
   116    15    14    1
   117    23    22    1
   118   137   138    2
   119   137   145   am
   120    14    11    1
   121   140   141   ar
   122   140   142   ar
   123   141   143   ar
   124    85    84    1
   125   145   146    1
   126    78    77    1
   127    13    12    2
   128    84    86    1
   129    84    83    2
   130    77    80    1
   131    77    76    1
   132   143   144   ar
   133   142   144   ar
   134    11    12    1
   135    11    10    1
   136   146   147    1
   137    83    82    1
   138    80    81    1
   139    82    81    1
   140   148   147    2
