@<TRIPOS>MOLECULE
tmp/1bhnF00.pdb
 150 142 0 0 0
SMALL
GASTEIGER

@<TRIPOS>ATOM
      1  N         36.3800   15.8120   74.9250 N.3    11  LYS11      -0.1301
      2  CA        36.5050   15.5830   76.4150 C.3    11  LYS11       0.1247
      3  C         37.0500   14.1950   76.7940 C.3    11  LYS11       0.2009
      4  O         37.3190   13.3520   75.8420 O.3    11  LYS11      -0.2188
      5  CB        35.2590   16.0030   77.1520 C.3    11  LYS11       0.0218
      6  CG        34.6940   17.3800   76.7420 C.3    11  LYS11       0.0031
      7  CD        33.2260   17.7610   76.9950 C.3    11  LYS11       0.0205
      8  CE        33.0290   19.2760   77.0450 C.3    11  LYS11       0.1093
      9  NZ        31.7490   19.7970   77.6590 N.3    11  LYS11      -0.1314
     10  N         36.4890   28.1390   81.3490 N.3    51  TYR51      -0.1241
     11  CA        35.1610   27.9010   81.9290 C.3    51  TYR51       0.1605
     12  C         34.9620   28.9870   82.9990 C.2    51  TYR51       0.2264
     13  O         34.1900   28.8880   83.9570 O.2    51  TYR51      -0.2867
     14  CB        35.0320   26.4480   82.4740 C.3    51  TYR51       0.0534
     15  CG        34.7660   25.3930   81.4100 C.ar   51  TYR51      -0.0201
     16  CD1       33.9880   25.8590   80.3440 C.ar   51  TYR51      -0.0009
     17  CD2       35.2760   24.0870   81.3700 C.ar   51  TYR51      -0.0009
     18  CE1       33.5980   25.0760   79.2530 C.ar   51  TYR51       0.0417
     19  CE2       34.9140   23.2730   80.2860 C.ar   51  TYR51       0.0417
     20  CZ        34.0730   23.7650   79.2740 C.ar   51  TYR51       0.1957
     21  OH        33.7110   23.0330   78.1910 O.3    51  TYR51      -0.2866
     22  N         31.3530   30.7090   83.5020 N.3    54  LEU54      -0.1245
     23  CA        30.5600   29.8230   84.3460 C.3    54  LEU54       0.1561
     24  C         31.5340   29.6210   85.5090 C.2    54  LEU54       0.2260
     25  O         32.0540   28.5500   85.7860 O.2    54  LEU54      -0.2867
     26  CB        30.4350   28.4320   83.7260 C.3    54  LEU54       0.0270
     27  CG        29.3030   28.2240   82.7090 C.3    54  LEU54       0.0019
     28  CD1       29.1310   29.4440   81.8160 C.3    54  LEU54       0.0001
     29  CD2       29.4250   26.9080   81.9190 C.3    54  LEU54       0.0001
     30  N         27.6730   23.1720   88.6870 N.3    59  PHE59      -0.1241
     31  CA        28.8200   22.3470   88.2850 C.3    59  PHE59       0.1605
     32  C         30.2650   22.8580   88.5940 C.2    59  PHE59       0.2264
     33  O         31.0620   22.3990   89.4530 O.2    59  PHE59      -0.2867
     34  CB        28.6330   21.8270   86.7830 C.3    59  PHE59       0.0534
     35  CG        27.8390   22.8290   85.9940 C.ar   59  PHE59      -0.0203
     36  CD1       26.4580   22.8040   86.1890 C.ar   59  PHE59      -0.0042
     37  CD2       28.4190   23.8410   85.2330 C.ar   59  PHE59      -0.0042
     38  CE1       25.6710   23.7880   85.5880 C.ar   59  PHE59      -0.0003
     39  CE2       27.6280   24.7680   84.5610 C.ar   59  PHE59      -0.0003
     40  CZ        26.2470   24.7660   84.7710 C.ar   59  PHE59      -0.0000
     41  N         33.0360   21.2390   89.3620 N.3    62  GLY62      -0.1210
     42  CA        32.7650   19.8090   89.0790 C.3    62  GLY62       0.1956
     43  C         33.3220   19.3320   87.6950 C.2    62  GLY62       0.2611
     44  O         33.7900   18.1920   87.4080 O.2    62  GLY62      -0.2717
     45  N         33.1740   20.3460   86.8600 N.am   63  LEU63      -0.1979
     46  CA        33.5230   20.5440   85.4810 C.3    63  LEU63       0.1596
     47  C         35.0360   20.5680   85.4320 C.2    63  LEU63       0.2287
     48  O         35.7130   19.6800   84.8810 O.2    63  LEU63      -0.2864
     49  CB        33.0880   21.9910   85.1100 C.3    63  LEU63       0.0297
     50  CG        33.0640   22.3610   83.6310 C.3    63  LEU63       0.0022
     51  CD1       32.6980   21.1130   82.8660 C.3    63  LEU63       0.0001
     52  CD2       32.0020   23.3900   83.2530 C.3    63  LEU63       0.0001
     53  N         36.5980   17.2980   86.3330 N.3    66  TYR66      -0.1241
     54  CA        36.4290   16.2210   85.4070 C.3    66  TYR66       0.1605
     55  C         37.2750   16.4190   84.2190 C.2    66  TYR66       0.2264
     56  O         38.0250   15.5240   83.8090 O.2    66  TYR66      -0.2867
     57  CB        35.0300   16.4270   84.9790 C.3    66  TYR66       0.0534
     58  CG        34.8830   15.5950   83.7790 C.ar   66  TYR66      -0.0201
     59  CD1       35.4140   14.3240   83.5250 C.ar   66  TYR66      -0.0009
     60  CD2       33.9940   16.2430   82.9250 C.ar   66  TYR66      -0.0009
     61  CE1       35.0860   13.7810   82.2830 C.ar   66  TYR66       0.0417
     62  CE2       33.6740   15.7280   81.6750 C.ar   66  TYR66       0.0417
     63  CZ        34.2290   14.4780   81.4170 C.ar   66  TYR66       0.1957
     64  OH        33.8390   14.0030   80.2100 O.3    66  TYR66      -0.2866
     65  N         28.9480   23.5160   65.6110 N.3    87  ARG87      -0.1245
     66  CA        27.9650   23.3670   66.7030 C.3    87  ARG87       0.1563
     67  C         26.9060   22.3930   66.3940 C.2    87  ARG87       0.2260
     68  O         26.5830   21.4280   67.0780 O.2    87  ARG87      -0.2867
     69  CB        27.3300   24.7080   66.9210 C.3    87  ARG87       0.0307
     70  CG        28.5100   25.5630   67.4250 C.3    87  ARG87       0.0489
     71  CD        28.4270   26.3370   68.7610 C.3    87  ARG87       0.2205
     72  NE        28.5590   25.5190   69.9670 N.pl3  87  ARG87      -0.0865
     73  CZ        28.2410   25.6820   71.2560 C.cat  87  ARG87       0.5346
     74  NH1       27.6770   26.7930   71.7290 N.pl3  87  ARG87       0.1354
     75  NH2       28.5400   24.6600   72.0920 N.pl3  87  ARG87       0.1354
     76  N         23.9500   21.1600   73.3660 N.3    93  THR93      -0.1218
     77  CA        24.8780   20.8520   74.4500 C.3    93  THR93       0.1862
     78  C         24.5950   19.6000   75.3130 C.2    93  THR93       0.2287
     79  O         25.4640   18.7800   75.7530 O.2    93  THR93      -0.2866
     80  CB        25.0550   22.1270   75.2640 C.3    93  THR93       0.1770
     81  OG1       25.6060   23.1800   74.5180 O.3    93  THR93      -0.2211
     82  CG2       26.0640   21.8090   76.3060 C.3    93  THR93       0.0375
     83  N         27.0380   14.3230   69.6070 N.3   104  ARG104     -0.1245
     84  CA        26.3750   13.9480   70.8990 C.3   104  ARG104      0.1563
     85  C         25.2080   12.9800   70.6580 C.2   104  ARG104      0.2260
     86  O         25.1320   11.9330   71.2670 O.2   104  ARG104     -0.2867
     87  CB        25.9800   15.1990   71.7120 C.3   104  ARG104      0.0307
     88  CG        27.1930   16.0890   72.1020 C.3   104  ARG104      0.0489
     89  CD        26.8310   17.5560   72.4070 C.3   104  ARG104      0.2205
     90  NE        27.9190   18.3300   73.0020 N.pl3 104  ARG104     -0.0865
     91  CZ        28.1470   19.6890   72.9820 C.cat 104  ARG104      0.5346
     92  NH1       27.3840   20.6430   72.3210 N.pl3 104  ARG104      0.1354
     93  NH2       29.2650   20.1320   73.6520 N.pl3 104  ARG104      0.1354
     94  N         24.5190   12.0550   78.9120 N.3   110  GLN110     -0.1231
     95  CA        24.1380   13.1860   79.7740 C.3   110  GLN110      0.1698
     96  C         25.1320   14.2860   79.6900 C.2   110  GLN110      0.2592
     97  O         26.2960   13.9550   79.5770 O.2   110  GLN110     -0.2718
     98  CB        23.8690   12.9490   81.2850 C.3   110  GLN110      0.0381
     99  CG        25.1300   12.5650   82.0740 C.3   110  GLN110      0.0905
    100  CD        25.0600   12.5130   83.5810 C.2   110  GLN110      0.2608
    101  OE1       25.4660   13.5980   83.9920 O.2   110  GLN110     -0.2717
    102  NE2       24.6800   11.3750   84.2610 N.am  110  GLN110     -0.0878
    103  N         24.5680   15.4850   79.8450 N.am  111  VAL111     -0.1966
    104  CA        25.2540   16.7690   79.7380 C.3   111  VAL111      0.1727
    105  C         26.5210   16.8760   80.5260 C.2   111  VAL111      0.2617
    106  O         27.1830   17.9150   80.4060 O.2   111  VAL111     -0.2715
    107  CB        24.4310   17.8880   80.3490 C.3   111  VAL111      0.0290
    108  CG1       24.2510   19.1740   79.5680 C.3   111  VAL111      0.0023
    109  CG2       23.2470   17.4410   81.1600 C.3   111  VAL111      0.0023
    110  N         26.6760   15.8540   81.3830 N.am  112  GLY112     -0.1940
    111  CA        27.7660   15.6700   82.3320 C.3   112  GLY112      0.2014
    112  C         29.0230   14.9820   81.7980 C.2   112  GLY112      0.2639
    113  O         30.1260   15.0600   82.3210 O.2   112  GLY112     -0.2714
    114  N         28.7570   14.1480   80.8190 N.am  113  ARG113     -0.1963
    115  CA        29.5930   13.3580   79.9250 C.3   113  ARG113      0.1729
    116  C         29.1790   13.6530   78.4740 C.2   113  ARG113      0.2616
    117  O         28.6000   12.7380   77.8360 O.2   113  ARG113     -0.2715
    118  CB        29.4940   11.9050   80.3000 C.3   113  ARG113      0.0348
    119  CG        29.5400   12.1360   81.7880 C.3   113  ARG113      0.0492
    120  CD        31.0030   12.4280   82.1860 C.3   113  ARG113      0.2205
    121  NE        31.2120   13.1350   83.4410 N.pl3 113  ARG113     -0.0865
    122  CZ        31.7290   12.6190   84.5600 C.cat 113  ARG113      0.5346
    123  NH1       32.1160   11.3290   84.7120 N.pl3 113  ARG113      0.1354
    124  NH2       31.7830   13.5090   85.5600 N.pl3 113  ARG113      0.1354
    125  N         29.4710   14.9480   78.0740 N.am  114  ASN114     -0.1972
    126  CA        29.1430   15.3750   76.7640 C.3   114  ASN114      0.1688
    127  C         30.2970   15.4200   75.7370 C.2   114  ASN114      0.2292
    128  O         30.4530   16.3900   74.9810 O.2   114  ASN114     -0.2864
    129  CB        28.0300   16.4290   76.7290 C.3   114  ASN114      0.1181
    130  CG        28.7700   17.6850   76.8260 C.2   114  ASN114      0.2629
    131  OD1       29.8510   17.5290   77.3420 O.2   114  ASN114     -0.2716
    132  ND2       28.1320   18.8200   76.5350 N.am  114  ASN114     -0.0877
    133  N         33.3830   19.6190   73.0770 N.3   117  HIS117     -0.1241
    134  CA        32.9200   20.9840   73.1920 C.3   117  HIS117      0.1621
    135  C         33.3780   21.6570   71.8990 C.2   117  HIS117      0.2264
    136  O         34.4560   21.3710   71.3480 O.2   117  HIS117     -0.2867
    137  CB        33.7380   21.6900   74.3220 C.3   117  HIS117      0.0745
    138  CG        34.0240   23.1550   74.0980 C.ar  117  HIS117      0.0817
    139  ND1       33.0170   24.1000   74.2480 N.ar  117  HIS117     -0.2268
    140  CD2       35.1150   23.8530   73.6090 C.ar  117  HIS117      0.1154
    141  CE1       33.4560   25.3140   73.8670 C.ar  117  HIS117      0.1986
    142  NE2       34.7340   25.1810   73.4900 N.ar  117  HIS117     -0.2212
    143  N         31.1020   28.9200   70.5480 N.3   120  ASP120     -0.1239
    144  CA        29.6430   29.0610   70.2860 C.3   120  ASP120      0.1674
    145  C         29.5330   30.3740   69.5840 C.2   120  ASP120      0.2266
    146  O         28.4510   30.8690   69.3410 O.2   120  ASP120     -0.2867
    147  CB        28.9650   29.2690   71.6770 C.3   120  ASP120      0.1410
    148  CG        29.4640   30.4280   72.5490 C.2   120  ASP120      0.3668
    149  OD1       30.6160   30.8510   72.6070 O.co2 120  ASP120     -0.2456
    150  OD2       28.5470   30.8760   73.3400 O.co2 120  ASP120     -0.2456
@<TRIPOS>BOND
     1    65    66    1
     2    67    66    1
     3    67    68    2
     4    66    69    1
     5    69    70    1
     6    70    71    1
     7    71    72    1
     8   146   145    2
     9   145   144    1
    10    83    84    1
    11    72    73    2
    12   144   143    1
    13   144   147    1
    14    85    84    1
    15    85    86    2
    16    84    87    1
    17    73    74    1
    18    73    75    1
    19   136   135    2
    20   147   148    1
    21    87    88    1
    22   135   134    1
    23    88    89    1
    24    92    91    1
    25    89    90    1
    26   148   149   ar
    27   148   150   ar
    28    91    90    2
    29    91    93    1
    30   133   134    1
    31   134   137    1
    32    76    77    1
    33   142   140   ar
    34   142   141   ar
    35   140   138   ar
    36   141   139   ar
    37   138   139   ar
    38   138   137    1
    39    77    80    1
    40    77    78    1
    41    81    80    1
    42     1     2    1
    43   128   127    2
    44    80    82    1
    45    78    79    2
    46   127   126    1
    47     4     3    1
    48     2     3    1
    49     2     5    1
    50   132   130   am
    51   129   126    1
    52   129   130    1
    53     6     7    1
    54     6     5    1
    55   126   125    1
    56   130   131    2
    57     7     8    1
    58     8     9    1
    59   117   116    2
    60   125   116   am
    61    21    20    1
    62   116   115    1
    63    94    95    1
    64    18    20   ar
    65    18    16   ar
    66    20    19   ar
    67   108   107    1
    68    97    96    2
    69    96    95    1
    70    96   103   am
    71   104   103    1
    72   104   107    1
    73   104   105    1
    74    95    98    1
    75   115   118    1
    76   115   114    1
    77    64    63    1
    78    19    17   ar
    79   118   119    1
    80    16    15   ar
    81   107   109    1
    82   106   105    2
    83   105   110   am
    84   114   112   am
    85    98    99    1
    86    10    11    1
    87    17    15   ar
    88   110   111    1
    89    15    14    1
    90    63    62   ar
    91    63    61   ar
    92    62    60   ar
    93   119   120    1
    94   112   113    2
    95   112   111    1
    96    28    27    1
    97    29    27    1
    98    11    14    1
    99    11    12    1
   100    99   100    1
   101   120   121    1
   102    61    59   ar
   103    27    26    1
   104    51    50    1
   105    60    58   ar
   106    12    13    2
   107    52    50    1
   108   121   122    2
   109    22    23    1
   110    59    58   ar
   111   100   101    2
   112   100   102   am
   113    50    49    1
   114    26    23    1
   115    58    57    1
   116    56    55    2
   117    55    54    1
   118    23    24    1
   119   122   123    1
   120   122   124    1
   121    39    40   ar
   122    39    37   ar
   123    40    38   ar
   124    48    47    2
   125    57    54    1
   126    49    46    1
   127    37    35   ar
   128    54    53    1
   129    47    46    1
   130    46    45    1
   131    24    25    2
   132    38    36   ar
   133    35    36   ar
   134    35    34    1
   135    34    31    1
   136    45    43   am
   137    44    43    2
   138    43    42    1
   139    31    32    1
   140    31    30    1
   141    32    33    2
   142    42    41    1
