@<TRIPOS>MOLECULE
tmp/1bhxC00.pdb
 131 132 0 0 0
SMALL
GASTEIGER

@<TRIPOS>ATOM
      1  N         20.3760  -16.8590   33.2020 N.3    25  ILE25      -0.1245
      2  CA        21.2530  -15.8590   32.5420 C.3    25  ILE25       0.1561
      3  C         21.6420  -14.7570   33.5460 C.2    25  ILE25       0.2260
      4  O         20.8250  -14.3070   34.3320 O.2    25  ILE25      -0.2867
      5  CB        20.5590  -15.1540   31.3020 C.3    25  ILE25       0.0252
      6  CG1       20.0960  -16.1880   30.2720 C.3    25  ILE25       0.0019
      7  CG2       21.5430  -14.2700   30.5580 C.3    25  ILE25       0.0019
      8  CD1       21.2140  -17.0460   29.6700 C.3    25  ILE25       0.0001
      9  N          4.0520   -9.8730   25.2090 N.3    45  ASP45      -0.1225
     10  CA         5.4940   -9.9820   25.1230 C.3    45  ASP45       0.1805
     11  C          5.9160   -9.6990   23.6820 C.2    45  ASP45       0.2598
     12  O          5.1210   -9.7470   22.7080 O.2    45  ASP45      -0.2718
     13  CB         5.9560  -11.4000   25.5460 C.3    45  ASP45       0.1424
     14  CG         7.4840  -11.5180   25.7950 C.2    45  ASP45       0.3668
     15  OD1        8.2480  -10.5290   25.9310 O.co2  45  ASP45      -0.2456
     16  OD2        7.9700  -12.6590   25.8860 O.co2  45  ASP45      -0.2456
     17  N          7.1750   -9.3050   23.5800 N.am   46  ALA46      -0.1966
     18  CA         7.8030   -9.0310   22.3120 C.3    46  ALA46       0.1728
     19  C          8.1660  -10.4890   21.9150 C.2    46  ALA46       0.2616
     20  O          8.0660  -11.4400   22.6990 O.2    46  ALA46      -0.2715
     21  CB         9.0780   -8.1930   22.5250 C.3    46  ALA46       0.0334
     22  N          8.5660  -10.6800   20.6710 N.am   47  CYS47      -0.1954
     23  CA         8.9390  -12.0030   20.2010 C.3    47  CYS47       0.1843
     24  C          9.8950  -11.7770   19.0280 C.2    47  CYS47       0.2625
     25  O         10.2930  -10.6300   18.7550 O.2    47  CYS47      -0.2714
     26  CB         7.6840  -12.7630   19.7700 C.3    47  CYS47       0.0997
     27  SG         7.9270  -14.5750   19.6150 S.3    47  CYS47      -0.0797
     28  N         10.2310  -12.8580   18.3300 N.am   48  GLU48      -0.1977
     29  CA        11.1170  -12.8330   17.1900 C.3    48  GLU48       0.1602
     30  C         10.5930  -11.8590   16.1360 C.2    48  GLU48       0.2287
     31  O          9.4070  -11.8730   15.7740 O.2    48  GLU48      -0.2864
     32  CB        11.2260  -14.2390   16.6240 C.3    48  GLU48       0.0415
     33  CG        12.1490  -14.3200   15.4070 C.3    48  GLU48       0.1163
     34  CD        12.4810  -15.7300   14.9420 C.2    48  GLU48       0.3649
     35  OE1       11.8470  -16.7260   15.3950 O.co2  48  GLU48      -0.2457
     36  OE2       13.4120  -15.8060   14.1020 O.co2  48  GLU48      -0.2457
     37  N         12.8830   -7.6090   17.9610 N.3    51  SER51      -0.1217
     38  CA        14.2210   -7.2210   18.4190 C.3    51  SER51       0.1889
     39  C         14.5800   -5.8430   17.8980 C.2    51  SER51       0.2288
     40  O         14.2160   -5.5120   16.7850 O.2    51  SER51      -0.2866
     41  CB        15.2620   -8.1570   17.8380 C.3    51  SER51       0.2089
     42  OG        14.8980   -9.4940   18.0060 O.3    51  SER51      -0.2183
     43  N         14.1090   -3.6140   22.6650 N.3    71  VAL71      -0.1231
     44  CA        13.7540   -5.0320   22.7670 C.3    71  VAL71       0.1692
     45  C         15.0550   -5.8510   22.5750 C.2    71  VAL71       0.2593
     46  O         15.6920   -5.8030   21.5150 O.2    71  VAL71      -0.2718
     47  CB        12.6760   -5.4450   21.6710 C.3    71  VAL71       0.0266
     48  CG1       12.2210   -6.8850   21.9400 C.3    71  VAL71       0.0020
     49  CG2       11.4730   -4.5060   21.6390 C.3    71  VAL71       0.0020
     50  N         15.4520   -6.5870   23.6100 N.am   72  SER72      -0.1938
     51  CA        16.6640   -7.3900   23.5330 C.3    72  SER72       0.2055
     52  C         16.4680   -8.9030   23.4400 C.2    72  SER72       0.2643
     53  O         16.4210   -9.4480   22.3330 O.2    72  SER72      -0.2714
     54  CB        17.5820   -7.0300   24.7140 C.3    72  SER72       0.2130
     55  OG        18.8930   -7.6070   24.6860 O.3    72  SER72      -0.2179
     56  N         16.3000   -9.5810   24.5790 N.am   73  TRP73      -0.1959
     57  CA        16.1500  -11.0260   24.6050 C.3    73  TRP73       0.1771
     58  C         15.0760  -11.5240   25.5160 C.2    73  TRP73       0.2620
     59  O         14.5090  -10.7640   26.2920 O.2    73  TRP73      -0.2715
     60  CB        17.5040  -11.6690   24.9690 C.3    73  TRP73       0.0590
     61  CG        18.0600  -11.3380   26.3470 C.ar   73  TRP73       0.0006
     62  CD1       18.8490  -10.2800   26.6790 C.ar   73  TRP73       0.0946
     63  CD2       17.8500  -12.0790   27.5640 C.ar   73  TRP73       0.0152
     64  NE1       19.1450  -10.3130   28.0220 N.ar   73  TRP73      -0.2442
     65  CE2       18.5380  -11.4090   28.5880 C.ar   73  TRP73       0.0810
     66  CE3       17.1340  -13.2510   27.8780 C.ar   73  TRP73       0.0012
     67  CZ2       18.5440  -11.8650   29.9170 C.ar   73  TRP73       0.0191
     68  CZ3       17.1310  -13.7120   29.1810 C.ar   73  TRP73       0.0001
     69  CH2       17.8310  -13.0080   30.1930 C.ar   73  TRP73       0.0015
     70  N         14.7980  -12.8090   25.3860 N.am   74  GLY74      -0.1940
     71  CA        13.7820  -13.4720   26.1920 C.3    74  GLY74       0.2014
     72  C         13.9990  -14.9580   25.9690 C.2    74  GLY74       0.2639
     73  O         14.8160  -15.3110   25.1430 O.2    74  GLY74      -0.2714
     74  N         13.2850  -15.8330   26.6540 N.am   75  GLU75      -0.1963
     75  CA        13.4080  -17.2770   26.5370 C.3    75  GLU75       0.1733
     76  C         11.9780  -17.5760   26.1920 C.2    75  GLU75       0.2617
     77  O         11.1040  -17.6770   27.0530 O.2    75  GLU75      -0.2715
     78  CB        13.8150  -17.8550   27.8850 C.3    75  GLU75       0.0429
     79  CG        15.1230  -17.2740   28.3880 C.3    75  GLU75       0.1163
     80  CD        15.6050  -17.8360   29.7150 C.2    75  GLU75       0.3649
     81  OE1       14.9450  -17.6190   30.7420 O.co2  75  GLU75      -0.2457
     82  OE2       16.6660  -18.4960   29.7170 O.co2  75  GLU75      -0.2457
     83  N         11.7550  -17.7460   24.9030 N.am   76  GLY76      -0.1940
     84  CA        10.4060  -18.0050   24.4430 C.3    76  GLY76       0.2014
     85  C          9.7170  -16.6710   24.2210 C.2    76  GLY76       0.2639
     86  O         10.4110  -15.6770   24.0200 O.2    76  GLY76      -0.2714
     87  N          8.3940  -16.6430   24.2430 N.am   77  CYS77      -0.1967
     88  CA         7.6620  -15.4080   24.0260 C.3    77  CYS77       0.1712
     89  C          6.4270  -15.6440   24.8050 C.2    77  CYS77       0.2296
     90  O          5.7860  -16.6530   24.6450 O.2    77  CYS77      -0.2864
     91  CB         7.2720  -15.2220   22.5570 C.3    77  CYS77       0.0983
     92  SG         8.6730  -15.1150   21.4290 S.3    77  CYS77      -0.0798
     93  N         10.1400  -13.2350   31.3770 N.3    83  TYR83      -0.1227
     94  CA         9.9560  -11.8250   31.0460 C.3    83  TYR83       0.1736
     95  C         10.8300  -11.3910   29.8770 C.2    83  TYR83       0.2596
     96  O         11.7470  -12.1100   29.4950 O.2    83  TYR83      -0.2718
     97  CB        10.2750  -10.9740   32.2810 C.3    83  TYR83       0.0548
     98  CG         9.4910  -11.3930   33.4860 C.ar   83  TYR83      -0.0200
     99  CD1        8.1620  -10.9990   33.6250 C.ar   83  TYR83      -0.0009
    100  CD2       10.0510  -12.2430   34.4530 C.ar   83  TYR83      -0.0009
    101  CE1        7.4010  -11.4430   34.6960 C.ar   83  TYR83       0.0417
    102  CE2        9.3040  -12.7020   35.5330 C.ar   83  TYR83       0.0417
    103  CZ         7.9770  -12.2900   35.6340 C.ar   83  TYR83       0.1957
    104  OH         7.1620  -12.7460   36.6290 O.3    83  TYR83      -0.2866
    105  N         10.5190  -10.2450   29.2750 N.am   84  GLY84      -0.1942
    106  CA        11.3320   -9.7930   28.1690 C.3    84  GLY84       0.2014
    107  C         12.3720   -8.8870   28.8090 C.2    84  GLY84       0.2639
    108  O         12.0570   -8.2280   29.8110 O.2    84  GLY84      -0.2714
    109  N         13.6000   -8.8950   28.2920 N.am   85  PHE85      -0.1959
    110  CA        14.6700   -8.0570   28.8160 C.3    85  PHE85       0.1771
    111  C         14.9460   -7.0140   27.7600 C.2    85  PHE85       0.2619
    112  O         14.9010   -7.2800   26.5550 O.2    85  PHE85      -0.2715
    113  CB        15.8910   -8.8910   29.1680 C.3    85  PHE85       0.0574
    114  CG        15.6850   -9.6720   30.4120 C.ar   85  PHE85      -0.0200
    115  CD1       14.8810  -10.8130   30.4060 C.ar   85  PHE85      -0.0042
    116  CD2       16.2740   -9.2490   31.6030 C.ar   85  PHE85      -0.0042
    117  CE1       14.6600  -11.5300   31.5790 C.ar   85  PHE85      -0.0003
    118  CE2       16.0660   -9.9350   32.7670 C.ar   85  PHE85      -0.0003
    119  CZ        15.2520  -11.0940   32.7580 C.ar   85  PHE85      -0.0000
    120  N         15.1820   -5.8020   28.2320 N.am   86  TYR86      -0.1974
    121  CA        15.4360   -4.6460   27.3840 C.3    86  TYR86       0.1639
    122  C         16.7280   -3.9640   27.7140 C.2    86  TYR86       0.2290
    123  O         17.1230   -4.0300   28.8540 O.2    86  TYR86      -0.2864
    124  CB        14.2890   -3.6420   27.5960 C.3    86  TYR86       0.0560
    125  CG        12.9410   -4.2320   27.2790 C.ar   86  TYR86      -0.0198
    126  CD1       12.2270   -4.9830   28.2300 C.ar   86  TYR86      -0.0009
    127  CD2       12.4190   -4.1170   25.9970 C.ar   86  TYR86      -0.0009
    128  CE1       11.0270   -5.5920   27.9120 C.ar   86  TYR86       0.0417
    129  CE2       11.2250   -4.7170   25.6710 C.ar   86  TYR86       0.0417
    130  CZ        10.5430   -5.4580   26.6120 C.ar   86  TYR86       0.1957
    131  OH         9.3770   -6.0390   26.1660 O.3    86  TYR86      -0.2866
@<TRIPOS>BOND
     1    36    34   ar
     2    34    35   ar
     3    34    33    1
     4    33    32    1
     5    31    30    2
     6    30    29    1
     7    32    29    1
     8    40    39    2
     9    29    28    1
    10    41    42    1
    11    41    38    1
    12    39    38    1
    13    37    38    1
    14    28    24   am
    15    25    24    2
    16    24    23    1
    17    27    26    1
    18    27    92    1
    19    26    23    1
    20    23    22    1
    21    22    19   am
    22    92    91    1
    23    46    45    2
    24    49    47    1
    25    47    48    1
    26    47    44    1
    27    19    18    1
    28    19    20    2
    29    18    21    1
    30    18    17    1
    31    53    52    2
    32    91    88    1
    33    45    44    1
    34    45    50   am
    35    43    44    1
    36    12    11    2
    37    52    51    1
    38    52    56   am
    39    51    50    1
    40    51    54    1
    41    17    11   am
    42    11    10    1
    43    86    85    2
    44    88    87    1
    45    88    89    1
    46    85    87   am
    47    85    84    1
    48    84    83    1
    49    56    57    1
    50    57    60    1
    51    57    58    1
    52    90    89    2
    53    55    54    1
    54    83    76   am
    55    60    61    1
    56    10     9    1
    57    10    13    1
    58    73    72    2
    59    70    58   am
    60    70    71    1
    61    58    59    2
    62    13    14    1
    63   129   127   ar
    64   129   130   ar
    65    14    16   ar
    66    14    15   ar
    67    72    71    1
    68    72    74   am
    69   127   125   ar
    70   131   130    1
    71    76    75    1
    72    76    77    2
    73    61    62   ar
    74    61    63   ar
    75    75    74    1
    76    75    78    1
    77   112   111    2
    78   130   128   ar
    79    62    64   ar
    80   125   124    1
    81   125   126   ar
    82   121   124    1
    83   121   122    1
    84   121   120    1
    85    63    66   ar
    86    63    65   ar
    87   122   123    2
    88   111   120   am
    89   111   110    1
    90    66    68   ar
    91    78    79    1
    92   128   126   ar
    93    64    65   ar
    94   106   107    1
    95   106   105    1
    96   109   107   am
    97   109   110    1
    98    79    80    1
    99    65    67   ar
   100   107   108    2
   101   110   113    1
   102   113   114    1
   103    68    69   ar
   104   105    95   am
   105    96    95    2
   106     8     6    1
   107    80    82   ar
   108    80    81   ar
   109    95    94    1
   110    67    69   ar
   111     6     5    1
   112   115   114   ar
   113   115   117   ar
   114   114   116   ar
   115     7     5    1
   116    94    93    1
   117    94    97    1
   118     5     2    1
   119   117   119   ar
   120   116   118   ar
   121    97    98    1
   122     2     1    1
   123     2     3    1
   124   119   118   ar
   125    98    99   ar
   126    98   100   ar
   127     3     4    2
   128    99   101   ar
   129   100   102   ar
   130   101   103   ar
   131   102   103   ar
   132   103   104    1
