@<TRIPOS>MOLECULE
tmp/1bi9A00.pdb
 155 154 0 0 0
SMALL
GASTEIGER

@<TRIPOS>ATOM
      1  N         17.2340   17.8740   24.6740 N.3   164  ILE164     -0.1231
      2  CA        17.6750   16.8840   23.7050 C.3   164  ILE164      0.1692
      3  C         17.4050   17.3700   22.2740 C.2   164  ILE164      0.2592
      4  O         16.2420   17.5360   21.8920 O.2   164  ILE164     -0.2718
      5  CB        16.9340   15.5440   23.9530 C.3   164  ILE164      0.0266
      6  CG1       17.3280   14.9830   25.3350 C.3   164  ILE164      0.0019
      7  CG2       17.2270   14.5660   22.8290 C.3   164  ILE164      0.0020
      8  CD1       16.5300   13.7730   25.8060 C.3   164  ILE164      0.0001
      9  N         18.4680   17.6070   21.4880 N.am  165  ILE165     -0.1966
     10  CA        18.3010   18.0720   20.0970 C.3   165  ILE165      0.1712
     11  C         18.9040   17.1610   19.0220 C.2   165  ILE165      0.2458
     12  O         19.7420   16.3050   19.3120 O.2   165  ILE165     -0.2730
     13  CB        18.8590   19.5150   19.8770 C.3   165  ILE165      0.0289
     14  CG1       20.3800   19.5450   20.0060 C.3   165  ILE165      0.0022
     15  CG2       18.2440   20.4670   20.8940 C.3   165  ILE165      0.0023
     16  CD1       20.8840   19.5860   21.4360 C.3   165  ILE165      0.0001
     17  N         18.4650   17.3390   17.7600 N.am  166  PRO166     -0.2716
     18  CA        18.8980   16.5820   16.5820 C.3   166  PRO166      0.1536
     19  C         20.1730   17.1040   15.9280 C.2   166  PRO166      0.2599
     20  O         20.8620   17.9710   16.4720 O.2   166  PRO166     -0.2715
     21  CB        17.6990   16.6960   15.6570 C.3   166  PRO166      0.0310
     22  CG        17.2720   18.0840   15.8930 C.3   166  PRO166      0.0237
     23  CD        17.3380   18.2190   17.4080 C.3   166  PRO166      0.0939
     24  N         20.4730   16.5860   14.7430 N.am  167  TRP167     -0.1960
     25  CA        21.6800   16.9750   14.0190 C.3   167  TRP167      0.1771
     26  C         21.5100   18.0310   12.9190 C.2   167  TRP167      0.2619
     27  O         22.4950   18.4350   12.3070 O.2   167  TRP167     -0.2715
     28  CB        22.3350   15.7250   13.4120 C.3   167  TRP167      0.0590
     29  CG        21.3560   14.8660   12.6700 C.ar  167  TRP167      0.0006
     30  CD1       20.7450   13.7380   13.1340 C.ar  167  TRP167      0.0946
     31  CD2       20.7830   15.1300   11.3780 C.ar  167  TRP167      0.0152
     32  NE1       19.8210   13.2870   12.2170 N.ar  167  TRP167     -0.2442
     33  CE2       19.8240   14.1240   11.1330 C.ar  167  TRP167      0.0810
     34  CE3       20.9860   16.1210   10.4070 C.ar  167  TRP167      0.0012
     35  CZ2       19.0660   14.0800    9.9590 C.ar  167  TRP167      0.0191
     36  CZ3       20.2350   16.0800    9.2400 C.ar  167  TRP167      0.0001
     37  CH2       19.2830   15.0660    9.0260 C.ar  167  TRP167      0.0015
     38  N         20.2830   18.4770   12.6660 N.am  168  ASN168     -0.1972
     39  CA        20.0270   19.4670   11.6110 C.3   168  ASN168      0.1688
     40  C         20.8130   20.7800   11.6940 C.2   168  ASN168      0.2292
     41  O         21.3490   21.2620   10.6990 O.2   168  ASN168     -0.2864
     42  CB        18.5380   19.8070   11.5520 C.3   168  ASN168      0.1181
     43  CG        17.7080   18.6800   10.9990 C.2   168  ASN168      0.2629
     44  OD1       16.9180   18.8770   10.0720 O.2   168  ASN168     -0.2716
     45  ND2       17.8710   17.4860   11.5670 N.am  168  ASN168     -0.0877
     46  N         21.6550   17.1920   26.0450 N.3   191  LYS191     -0.1231
     47  CA        22.1690   16.0260   25.3380 C.3   191  LYS191      0.1678
     48  C         22.1310   16.2500   23.8370 C.2   191  LYS191      0.2434
     49  O         21.0660   16.1460   23.2170 O.2   191  LYS191     -0.2733
     50  CB        21.3130   14.8000   25.6770 C.3   191  LYS191      0.0284
     51  CG        22.0740   13.4930   25.8120 C.3   191  LYS191      0.0035
     52  CD        22.5850   12.9960   24.4790 C.3   191  LYS191      0.0206
     53  CE        21.4380   12.6230   23.5550 C.3   191  LYS191      0.1093
     54  NZ        21.9320   11.9590   22.3210 N.3   191  LYS191     -0.1314
     55  N         23.2920   16.5710   23.2300 N.am  192  PRO192     -0.2718
     56  CA        23.3480   16.8000   21.7800 C.3   192  PRO192      0.1535
     57  C         23.2750   15.4670   21.0610 C.2   192  PRO192      0.2598
     58  O         23.5240   14.4150   21.6640 O.2   192  PRO192     -0.2715
     59  CB        24.6910   17.5010   21.5870 C.3   192  PRO192      0.0310
     60  CG        25.5390   16.9190   22.6870 C.3   192  PRO192      0.0237
     61  CD        24.5940   16.8530   23.8710 C.3   192  PRO192      0.0939
     62  N         22.9240   15.5160   19.7780 N.am  193  ALA193     -0.1964
     63  CA        22.8090   14.3100   18.9540 C.3   193  ALA193      0.1728
     64  C         24.1330   13.5730   19.0120 C.2   193  ALA193      0.2616
     65  O         25.1700   14.1880   19.2010 O.2   193  ALA193     -0.2715
     66  CB        22.4700   14.6860   17.5090 C.3   193  ALA193      0.0334
     67  N         24.1030   12.2550   18.8570 N.am  194  GLU194     -0.1963
     68  CA        25.3400   11.4910   18.9170 C.3   194  GLU194      0.1733
     69  C         26.2400   11.7030   17.7020 C.2   194  GLU194      0.2616
     70  O         27.4530   11.5120   17.7940 O.2   194  GLU194     -0.2715
     71  CB        25.0570    9.9890   19.1270 C.3   194  GLU194      0.0429
     72  CG        24.0250    9.3570   18.2050 C.3   194  GLU194      0.1163
     73  CD        22.6070    9.7970   18.5170 C.2   194  GLU194      0.3649
     74  OE1       22.2700    9.8930   19.7200 O.co2 194  GLU194     -0.2457
     75  OE2       21.8310   10.0310   17.5610 O.co2 194  GLU194     -0.2457
     76  N         25.6650   12.1090   16.5730 N.am  195  GLN195     -0.1977
     77  CA        26.4780   12.3410   15.3900 C.3   195  GLN195      0.1601
     78  C         26.9520   13.7830   15.2350 C.2   195  GLN195      0.2287
     79  O         27.4220   14.1520   14.1620 O.2   195  GLN195     -0.2864
     80  CB        25.7490   11.8990   14.1040 C.3   195  GLN195      0.0394
     81  CG        24.3840   12.5040   13.8840 C.3   195  GLN195      0.0908
     82  CD        23.2660   11.6270   14.4310 C.2   195  GLN195      0.2608
     83  OE1       22.5930   10.9250   13.6790 O.2   195  GLN195     -0.2717
     84  NE2       23.0730   11.6590   15.7490 N.am  195  GLN195     -0.0878
     85  N         20.9190    8.2700   22.1450 N.3   224  GLY224     -0.1210
     86  CA        19.5480    8.5720   22.5050 C.3   224  GLY224      0.1940
     87  C         18.9320    7.5820   23.4740 C.2   224  GLY224      0.2453
     88  O         18.5220    7.9600   24.5740 O.2   224  GLY224     -0.2732
     89  N         18.8510    6.2990   23.0880 N.am  225  PRO225     -0.2728
     90  CA        18.2880    5.2140   23.8960 C.3   225  PRO225      0.1401
     91  C         18.9470    5.0420   25.2620 C.2   225  PRO225      0.2269
     92  O         18.4220    4.3320   26.1250 O.2   225  PRO225     -0.2865
     93  CB        18.4860    3.9990   23.0080 C.3   225  PRO225      0.0296
     94  CG        18.3280    4.5740   21.6490 C.3   225  PRO225      0.0237
     95  CD        19.1720    5.8160   21.7360 C.3   225  PRO225      0.0939
     96  N         19.8830   10.0470   26.5410 N.3   228  GLY228     -0.1210
     97  CA        18.6710   10.7930   26.2760 C.3   228  GLY228      0.1956
     98  C         17.4810   10.2500   27.0470 C.2   228  GLY228      0.2611
     99  O         16.6150   11.0080   27.4800 O.2   228  GLY228     -0.2717
    100  N         17.4320    8.9340   27.2140 N.am  229  ALA229     -0.1979
    101  CA        16.3300    8.3120   27.9270 C.3   229  ALA229      0.1597
    102  C         16.5210    8.4300   29.4400 C.2   229  ALA229      0.2287
    103  O         15.5470    8.4590   30.1990 O.2   229  ALA229     -0.2864
    104  CB        16.2110    6.8560   27.5240 C.3   229  ALA229      0.0319
    105  N         12.4200   18.5750   24.1210 N.3   242  PHE242     -0.1227
    106  CA        12.8410   17.6770   23.0560 C.3   242  PHE242      0.1736
    107  C         12.4970   18.2290   21.7020 C.2   242  PHE242      0.2596
    108  O         11.5030   18.9310   21.5320 O.2   242  PHE242     -0.2718
    109  CB        12.1920   16.2920   23.1870 C.3   242  PHE242      0.0547
    110  CG        12.4720   15.3760   22.0110 C.ar  242  PHE242     -0.0202
    111  CD1       11.7090   15.4620   20.8350 C.ar  242  PHE242     -0.0042
    112  CD2       13.5160   14.4540   22.0610 C.ar  242  PHE242     -0.0042
    113  CE1       11.9840   14.6450   19.7300 C.ar  242  PHE242     -0.0003
    114  CE2       13.7960   13.6370   20.9620 C.ar  242  PHE242     -0.0003
    115  CZ        13.0280   13.7350   19.7940 C.ar  242  PHE242     -0.0000
    116  N         13.3340   17.8980   20.7370 N.am  243  THR243     -0.1939
    117  CA        13.1140   18.3140   19.3720 C.3   243  THR243      0.2028
    118  C         13.8400   17.2790   18.5230 C.2   243  THR243      0.2643
    119  O         15.0180   16.9900   18.7390 O.2   243  THR243     -0.2714
    120  CB        13.6360   19.7620   19.1210 C.3   243  THR243      0.1808
    121  OG1       13.6780   20.0220   17.7130 O.3   243  THR243     -0.2208
    122  CG2       14.9990   19.9550   19.7140 C.3   243  THR243      0.0379
    123  N         13.1040   16.6940   17.5860 N.am  244  GLY244     -0.1939
    124  CA        13.6480   15.6660   16.7200 C.3   244  GLY244      0.2014
    125  C         12.4990   14.9660   16.0260 C.2   244  GLY244      0.2639
    126  O         11.5800   15.6270   15.5300 O.2   244  GLY244     -0.2714
    127  N         12.5280   13.6350   16.0080 N.am  245  SER245     -0.1949
    128  CA        11.4770   12.8520   15.3490 C.3   245  SER245      0.1924
    129  C         10.2290   12.6410   16.2120 C.2   245  SER245      0.2314
    130  O         10.3070   12.5110   17.4380 O.2   245  SER245     -0.2863
    131  CB        12.0200   11.4890   14.9320 C.3   245  SER245      0.2116
    132  OG        12.0630   10.6160   16.0480 O.3   245  SER245     -0.2180
    133  N         10.0520    9.4690   18.3330 N.3   248  VAL248     -0.1245
    134  CA        10.8300    9.5240   19.5690 C.3   248  VAL248      0.1561
    135  C         10.2010   10.4510   20.6140 C.2   248  VAL248      0.2260
    136  O         10.4420   10.3040   21.8080 O.2   248  VAL248     -0.2867
    137  CB        12.2800    9.9620   19.3020 C.3   248  VAL248      0.0252
    138  CG1       13.0720    9.9450   20.6050 C.3   248  VAL248      0.0019
    139  CG2       12.9180    9.0300   18.2870 C.3   248  VAL248      0.0019
    140  N          7.9930    8.5440   22.9290 N.3   251  LEU251     -0.1231
    141  CA         8.7460    7.8600   23.9760 C.3   251  LEU251      0.1693
    142  C          9.0890    8.8630   25.0670 C.2   251  LEU251      0.2591
    143  O          9.2440    8.5010   26.2300 O.2   251  LEU251     -0.2718
    144  CB        10.0430    7.2550   23.4110 C.3   251  LEU251      0.0284
    145  CG         9.9460    6.1790   22.3260 C.3   251  LEU251      0.0019
    146  CD1       11.3200    5.8670   21.7980 C.3   251  LEU251      0.0001
    147  CD2        9.3000    4.9230   22.8900 C.3   251  LEU251      0.0001
    148  N          9.2030   10.1290   24.6810 N.am  252  ILE252     -0.1980
    149  CA         9.5450   11.1710   25.6340 C.3   252  ILE252      0.1595
    150  C          8.3540   11.5210   26.5170 C.2   252  ILE252      0.2287
    151  O          8.4750   11.5230   27.7420 O.2   252  ILE252     -0.2864
    152  CB        10.0540   12.4620   24.9210 C.3   252  ILE252      0.0276
    153  CG1       11.2830   12.1530   24.0500 C.3   252  ILE252      0.0022
    154  CG2       10.4300   13.5110   25.9600 C.3   252  ILE252      0.0022
    155  CD1       12.5210   11.7260   24.8270 C.3   252  ILE252      0.0001
@<TRIPOS>BOND
     1    37    36   ar
     2    37    35   ar
     3    36    34   ar
     4    35    33   ar
     5    44    43    2
     6    34    31   ar
     7    41    40    2
     8    43    42    1
     9    43    45   am
    10    33    31   ar
    11    33    32   ar
    12    31    29   ar
    13    42    39    1
    14    39    40    1
    15    39    38    1
    16    32    30   ar
    17    27    26    2
    18    38    26   am
    19    29    30   ar
    20    29    28    1
    21    26    25    1
    22    28    25    1
    23    83    82    2
    24    81    80    1
    25    81    82    1
    26    25    24    1
    27    80    77    1
    28    79    78    2
    29    82    84   am
    30    24    19   am
    31   131   128    1
    32   131   132    1
    33    78    77    1
    34   128   127    1
    35   128   129    1
    36    77    76    1
    37   126   125    2
    38    21    22    1
    39    21    18    1
    40    22    23    1
    41    19    20    2
    42    19    18    1
    43   127   125   am
    44   125   124    1
    45   129   130    2
    46    76    69   am
    47    18    17    1
    48   124   123    1
    49    23    17    1
    50    66    63    1
    51    75    73   ar
    52   123   118   am
    53    69    70    2
    54    69    68    1
    55   121   120    1
    56    17    11   am
    57    72    73    1
    58    72    71    1
    59   139   137    1
    60   133   134    1
    61    73    74   ar
    62   118   119    2
    63   118   117    1
    64    67    68    1
    65    67    64   am
    66    68    71    1
    67    63    64    1
    68    63    62    1
    69    64    65    2
    70    11    12    2
    71    11    10    1
    72   120   117    1
    73   120   122    1
    74   137   134    1
    75   137   138    1
    76   117   116    1
    77   134   135    1
    78   113   115   ar
    79   113   111   ar
    80    62    57   am
    81   115   114   ar
    82    13    14    1
    83    13    10    1
    84    13    15    1
    85    14    16    1
    86    10     9    1
    87   135   136    2
    88   116   107   am
    89   111   110   ar
    90   114   112   ar
    91    57    58    2
    92    57    56    1
    93     9     3   am
    94   108   107    2
    95    59    56    1
    96    59    60    1
    97    94    95    1
    98    94    93    1
    99   107   106    1
   100    95    89    1
   101    56    55    1
   102   146   145    1
   103     4     3    2
   104   110   112   ar
   105   110   109    1
   106    85    86    1
   107     3     2    1
   108    54    53    1
   109   145   147    1
   110   145   144    1
   111    86    87    1
   112    60    61    1
   113     7     5    1
   114   140   141    1
   115    93    90    1
   116   106   109    1
   117   106   105    1
   118    89    87   am
   119    89    90    1
   120    49    48    2
   121    55    48   am
   122    55    61    1
   123   144   141    1
   124    87    88    2
   125    53    52    1
   126     2     5    1
   127     2     1    1
   128    48    47    1
   129    90    91    1
   130     5     6    1
   131   141   142    1
   132   153   155    1
   133   153   152    1
   134    52    51    1
   135   148   142   am
   136   148   149    1
   137   152   149    1
   138   152   154    1
   139   142   143    2
   140    91    92    2
   141     6     8    1
   142    47    50    1
   143    47    46    1
   144   149   150    1
   145    50    51    1
   146    97    96    1
   147    97    98    1
   148   150   151    2
   149    98   100   am
   150    98    99    2
   151   100   101    1
   152   104   101    1
   153   101   102    1
   154   102   103    2
