@<TRIPOS>MOLECULE
tmp/1bibA00.pdb
 136 129 0 0 0
SMALL
GASTEIGER

@<TRIPOS>ATOM
      1  N         88.8650  106.1730   83.3990 N.3    88  SER88      -0.1202
      2  CA        88.0930  107.3060   83.0270 C.3    88  SER88       0.2020
      3  C         88.3590  108.4600   84.0090 C.2    88  SER88       0.2619
      4  O         88.4320  108.2480   85.2530 O.2    88  SER88      -0.2717
      5  CB        86.6540  106.9030   83.0720 C.3    88  SER88       0.2103
      6  OG        86.0090  107.7340   84.0020 O.3    88  SER88      -0.2182
      7  N         88.4940  109.6900   83.4460 N.am   89  THR89      -0.1938
      8  CA        88.7370  110.9460   84.2060 C.3    89  THR89       0.2028
      9  C         87.6040  111.2270   85.1420 C.2    89  THR89       0.2642
     10  O         87.8310  111.5570   86.3110 O.2    89  THR89      -0.2714
     11  CB        89.0110  112.1950   83.3440 C.3    89  THR89       0.1808
     12  OG1       87.8670  112.5470   82.5730 O.3    89  THR89      -0.2208
     13  CG2       90.1660  111.9300   82.3740 C.3    89  THR89       0.0379
     14  N         86.3710  110.9970   84.6430 N.am   90  ASN90      -0.1971
     15  CA        85.2060  111.2080   85.4990 C.3    90  ASN90       0.1688
     16  C         85.1660  110.2070   86.6730 C.2    90  ASN90       0.2292
     17  O         85.0560  110.5160   87.8580 O.2    90  ASN90      -0.2864
     18  CB        83.9130  111.2240   84.7060 C.3    90  ASN90       0.1181
     19  CG        83.5400  112.5540   84.0760 C.2    90  ASN90       0.2629
     20  OD1       84.3300  113.4880   84.0220 O.2    90  ASN90      -0.2716
     21  ND2       82.3390  112.6100   83.5170 N.am   90  ASN90      -0.0877
     22  N         92.0440  106.9460   77.7020 N.3   111  GLN111     -0.1245
     23  CA        91.0360  106.4200   78.6360 C.3   111  GLN111      0.1566
     24  C         90.7020  105.0070   78.2740 C.2   111  GLN111      0.2260
     25  O         90.2630  104.6970   77.1550 O.2   111  GLN111     -0.2867
     26  CB        89.7280  107.2430   78.7510 C.3   111  GLN111      0.0367
     27  CG        89.7990  108.3670   79.7950 C.3   111  GLN111      0.0905
     28  CD        88.4880  109.0650   80.0660 C.2   111  GLN111      0.2608
     29  OE1       88.1830  109.4330   81.2050 O.2   111  GLN111     -0.2717
     30  NE2       87.7130  109.2580   79.0150 N.am  111  GLN111     -0.0878
     31  N         86.1940  104.9290   79.0220 N.3   114  GLY114     -0.1210
     32  CA        85.4870  106.1830   79.0720 C.3   114  GLY114      0.1956
     33  C         83.9700  106.0450   79.2850 C.2   114  GLY114      0.2612
     34  O         83.3290  105.1970   78.6530 O.2   114  GLY114     -0.2717
     35  N         83.4030  106.8890   80.1730 N.am  115  ARG115     -0.1965
     36  CA        81.9720  106.9480   80.4480 C.3   115  ARG115      0.1729
     37  C         81.3400  107.8440   79.3950 C.2   115  ARG115      0.2617
     38  O         82.0690  108.5800   78.7470 O.2   115  ARG115     -0.2715
     39  CB        81.7590  107.5990   81.7960 C.3   115  ARG115      0.0348
     40  CG        82.5560  106.8970   82.8780 C.3   115  ARG115      0.0492
     41  CD        82.5750  107.6650   84.1950 C.3   115  ARG115      0.2205
     42  NE        81.4980  107.4230   85.1470 N.pl3 115  ARG115     -0.0865
     43  CZ        80.3070  106.8830   84.8950 C.cat 115  ARG115      0.5346
     44  NH1       79.9360  106.4620   83.6890 N.pl3 115  ARG115      0.1354
     45  NH2       79.4310  106.7310   85.8970 N.pl3 115  ARG115      0.1354
     46  N         80.0210  107.7880   79.1780 N.am  116  GLY116     -0.1940
     47  CA        79.3680  108.7300   78.2590 C.3   116  GLY116      0.2014
     48  C         79.1780  108.4970   76.7600 C.2   116  GLY116      0.2638
     49  O         78.7770  109.4430   76.0590 O.2   116  GLY116     -0.2714
     50  N         79.3970  107.2660   76.2960 N.am  117  ARG117     -0.1977
     51  CA        79.2440  106.7860   74.9160 C.3   117  ARG117      0.1597
     52  C         80.5840  106.2680   74.4410 C.2   117  ARG117      0.2287
     53  O         80.6640  105.2240   73.7990 O.2   117  ARG117     -0.2864
     54  CB        78.6030  107.7250   73.8790 C.3   117  ARG117      0.0334
     55  CG        77.1160  107.9520   74.1040 C.3   117  ARG117      0.0492
     56  CD        76.5650  109.1920   73.4090 C.3   117  ARG117      0.2205
     57  NE        75.1880  108.9480   72.9660 N.pl3 117  ARG117     -0.0865
     58  CZ        74.3210  109.8340   72.4230 C.cat 117  ARG117      0.5346
     59  NH1       74.6280  111.1330   72.2070 N.pl3 117  ARG117      0.1354
     60  NH2       73.0950  109.3810   72.1090 N.pl3 117  ARG117      0.1354
     61  N         91.6180  114.7240   77.6980 N.3   125  TYR125     -0.1227
     62  CA        90.5550  114.4830   78.6340 C.3   125  TYR125      0.1736
     63  C         90.6800  115.3130   79.8740 C.2   125  TYR125      0.2595
     64  O         91.7040  115.3350   80.5460 O.2   125  TYR125     -0.2718
     65  CB        90.4980  113.0070   79.0130 C.3   125  TYR125      0.0548
     66  CG        90.3070  112.1370   77.8060 C.ar  125  TYR125     -0.0200
     67  CD1       89.0850  112.1520   77.1410 C.ar  125  TYR125     -0.0009
     68  CD2       91.3190  111.2830   77.3670 C.ar  125  TYR125     -0.0009
     69  CE1       88.8920  111.3500   76.0210 C.ar  125  TYR125      0.0417
     70  CE2       91.1430  110.4890   76.2370 C.ar  125  TYR125      0.0417
     71  CZ        89.9220  110.5350   75.5700 C.ar  125  TYR125      0.1957
     72  OH        89.7050  109.7480   74.4840 O.3   125  TYR125     -0.2866
     73  N         89.6150  115.9950   80.1840 N.am  126  LEU126     -0.1966
     74  CA        89.6930  116.8180   81.3190 C.3   126  LEU126      0.1728
     75  C         88.4470  116.6620   82.1370 C.2   126  LEU126      0.2616
     76  O         87.3510  116.6300   81.5740 O.2   126  LEU126     -0.2715
     77  CB        89.8300  118.2700   80.7900 C.3   126  LEU126      0.0311
     78  CG        90.1220  119.2060   81.9490 C.3   126  LEU126      0.0022
     79  CD1       90.9470  120.3930   81.4870 C.3   126  LEU126      0.0001
     80  CD2       88.8190  119.6740   82.5780 C.3   126  LEU126      0.0001
     81  N         88.6080  116.5930   83.4510 N.am  127  SER127     -0.1950
     82  CA        87.4550  116.5020   84.3370 C.3   127  SER127      0.1924
     83  C         87.6650  117.3380   85.5590 C.2   127  SER127      0.2314
     84  O         88.7280  117.3850   86.1260 O.2   127  SER127     -0.2863
     85  CB        87.0520  115.1110   84.8140 C.3   127  SER127      0.2116
     86  OG        86.6590  114.3630   83.7060 O.3   127  SER127     -0.2180
     87  N         78.4370  120.4030   72.9070 N.3   168  ASP168     -0.1239
     88  CA        79.5910  119.9550   72.1410 C.3   168  ASP168      0.1674
     89  C         80.2360  121.1500   71.5700 C.2   168  ASP168      0.2266
     90  O         79.6060  122.1790   71.4460 O.2   168  ASP168     -0.2867
     91  CB        79.2100  119.1520   70.8970 C.3   168  ASP168      0.1410
     92  CG        78.4870  117.9270   71.3320 C.2   168  ASP168      0.3668
     93  OD1       78.7430  117.6240   72.5820 O.co2 168  ASP168     -0.2456
     94  OD2       77.7640  117.2850   70.5970 O.co2 168  ASP168     -0.2456
     95  N         81.8870  117.5610   64.9360 N.3   175  LYS175     -0.1245
     96  CA        82.0910  117.5140   66.3660 C.3   175  LYS175      0.1561
     97  C         83.5770  117.5200   66.7940 C.2   175  LYS175      0.2260
     98  O         84.4140  116.7970   66.2770 O.2   175  LYS175     -0.2867
     99  CB        81.1670  116.5200   67.0410 C.3   175  LYS175      0.0271
    100  CG        81.6050  116.2450   68.4470 C.3   175  LYS175      0.0035
    101  CD        80.6200  115.4050   69.2190 C.3   175  LYS175      0.0206
    102  CE        80.8580  115.5520   70.7120 C.3   175  LYS175      0.1093
    103  NZ        80.6040  114.3160   71.4440 N.3   175  LYS175     -0.1314
    104  N         83.3190  117.1520   73.5410 N.3   178  GLY178     -0.1210
    105  CA        82.0810  116.7780   74.1500 C.3   178  GLY178      0.1956
    106  C         82.1010  116.8930   75.6330 C.2   178  GLY178      0.2612
    107  O         82.9560  116.3400   76.2950 O.2   178  GLY178     -0.2717
    108  N         81.1510  117.6510   76.1510 N.am  179  ILE179     -0.1965
    109  CA        81.0630  117.8100   77.5730 C.3   179  ILE179      0.1727
    110  C         80.1940  116.6760   78.1070 C.2   179  ILE179      0.2616
    111  O         79.4270  116.0930   77.3620 O.2   179  ILE179     -0.2715
    112  CB        80.5370  119.1970   77.9650 C.3   179  ILE179      0.0290
    113  CG1       81.4080  120.3240   77.4430 C.3   179  ILE179      0.0022
    114  CG2       80.4830  119.3570   79.4740 C.3   179  ILE179      0.0023
    115  CD1       80.9590  120.9270   76.1280 C.3   179  ILE179      0.0001
    116  N         80.3610  116.3490   79.3830 N.am  180  LEU180     -0.1977
    117  CA        79.5640  115.3810   80.0850 C.3   180  LEU180      0.1596
    118  C         79.3850  115.8010   81.5560 C.2   180  LEU180      0.2287
    119  O         80.3360  115.9060   82.3380 O.2   180  LEU180     -0.2864
    120  CB        80.0280  113.9270   79.9680 C.3   180  LEU180      0.0297
    121  CG        79.2990  113.0710   81.0190 C.3   180  LEU180      0.0022
    122  CD1       77.9270  112.7380   80.5220 C.3   180  LEU180      0.0001
    123  CD2       79.9920  111.7580   81.3340 C.3   180  LEU180      0.0001
    124  N         83.3170  116.7350   82.7090 N.3   192  GLY192     -0.1210
    125  CA        84.2950  115.9970   81.9830 C.3   192  GLY192      0.1956
    126  C         84.2430  116.3030   80.5230 C.2   192  GLY192      0.2612
    127  O         83.2210  116.2520   79.9020 O.2   192  GLY192     -0.2717
    128  N         85.3590  116.5620   79.9390 N.am  193  ALA193     -0.1965
    129  CA        85.3010  116.8690   78.5470 C.3   193  ALA193      0.1728
    130  C         86.4510  116.1650   77.8780 C.2   193  ALA193      0.2616
    131  O         87.4820  115.9070   78.5510 O.2   193  ALA193     -0.2715
    132  CB        85.4620  118.3820   78.4010 C.3   193  ALA193      0.0334
    133  N         86.2400  115.9060   76.5700 N.am  194  GLY194     -0.1955
    134  CA        87.1970  115.2520   75.6840 C.3   194  GLY194      0.1869
    135  C         87.3780  116.0580   74.3890 C.2   194  GLY194      0.2309
    136  O         86.4380  116.4680   73.7230 O.2   194  GLY194     -0.2863
@<TRIPOS>BOND
     1    95    96    1
     2    98    97    2
     3    96    97    1
     4    96    99    1
     5    99   100    1
     6   100   101    1
     7   101   102    1
     8    94    92   ar
     9   102   103    1
    10    91    92    1
    11    91    88    1
    12    92    93   ar
    13    90    89    2
    14    89    88    1
    15    60    58    1
    16    88    87    1
    17    59    58    1
    18    58    57    2
    19    57    56    1
    20    56    55    1
    21   104   105    1
    22   136   135    2
    23    53    52    2
    24    54    55    1
    25    54    51    1
    26   105   106    1
    27   135   134    1
    28    52    51    1
    29    72    71    1
    30    51    50    1
    31    71    69   ar
    32    71    70   ar
    33   106   108   am
    34   106   107    2
    35   134   133    1
    36    69    67   ar
    37    49    48    2
    38   115   113    1
    39   108   109    1
    40    70    68   ar
    41    50    48   am
    42   133   130   am
    43    48    47    1
    44    67    66   ar
    45    25    24    2
    46   111   110    2
    47    68    66   ar
    48   113   112    1
    49   109   112    1
    50   109   110    1
    51    61    62    1
    52    22    23    1
    53    66    65    1
    54   130   129    1
    55   130   131    2
    56   112   114    1
    57   110   116   am
    58    47    46    1
    59    24    23    1
    60   132   129    1
    61   129   128    1
    62    62    65    1
    63    62    63    1
    64    23    26    1
    65    34    33    2
    66    38    37    2
    67    26    27    1
    68    30    28   am
    69    31    32    1
    70    32    33    1
    71    46    37   am
    72    33    35   am
    73   116   117    1
    74    37    36    1
    75    27    28    1
    76    63    73   am
    77    63    64    2
    78   127   126    2
    79   128   126   am
    80   120   117    1
    81   120   121    1
    82    28    29    2
    83   117   118    1
    84    35    36    1
    85    73    74    1
    86    36    39    1
    87   122   121    1
    88   126   125    1
    89    77    74    1
    90    77    78    1
    91   121   123    1
    92    74    75    1
    93    79    78    1
    94   118   119    2
    95    76    75    2
    96    39    40    1
    97    78    80    1
    98   125   124    1
    99    75    81   am
   100    13    11    1
   101    12    11    1
   102    40    41    1
   103     2     5    1
   104     2     1    1
   105     2     3    1
   106     5     6    1
   107    11     8    1
   108     7     3   am
   109     7     8    1
   110    81    82    1
   111    21    19   am
   112    44    43    1
   113    86    85    1
   114     3     4    2
   115    20    19    2
   116    19    18    1
   117    41    42    1
   118     8     9    1
   119    82    85    1
   120    82    83    1
   121    14     9   am
   122    14    15    1
   123    18    15    1
   124    43    42    2
   125    43    45    1
   126     9    10    2
   127    15    16    1
   128    83    84    2
   129    16    17    2
