@<TRIPOS>MOLECULE
tmp/1bifA00.pdb
 212 203 0 0 0
SMALL
GASTEIGER

@<TRIPOS>ATOM
      1  N         57.0230   60.5040   56.8510 N.3    11  PRO11      -0.2102
      2  CA        57.5100   59.1260   57.0050 C.3    11  PRO11       0.1504
      3  C         57.5770   58.7560   58.4710 C.2    11  PRO11       0.2576
      4  O         57.8220   59.6150   59.3210 O.2    11  PRO11      -0.2718
      5  CB        58.8960   59.1830   56.3730 C.3    11  PRO11       0.0282
      6  CG        58.7380   60.2390   55.3260 C.3    11  PRO11       0.0208
      7  CD        57.9910   61.3070   56.0810 C.3    11  PRO11       0.0893
      8  N         57.2820   57.4890   58.7600 N.am   12  ALA12      -0.1966
      9  CA        57.3110   56.9550   60.1190 C.3    12  ALA12       0.1728
     10  C         56.1930   57.4430   61.0160 C.2    12  ALA12       0.2616
     11  O         56.4050   57.6510   62.2010 O.2    12  ALA12      -0.2715
     12  CB        58.6800   57.2230   60.7830 C.3    12  ALA12       0.0334
     13  N         55.0060   57.6300   60.4510 N.am   13  ARG13      -0.1963
     14  CA        53.8380   58.0790   61.2330 C.3    13  ARG13       0.1729
     15  C         52.7600   56.9790   61.3540 C.2    13  ARG13       0.2617
     16  O         51.6080   57.2620   61.6850 O.2    13  ARG13      -0.2715
     17  CB        53.2200   59.3460   60.6070 C.3    13  ARG13       0.0348
     18  CG        53.6920   60.6480   61.2330 C.3    13  ARG13       0.0492
     19  CD        55.1880   60.8770   61.0280 C.3    13  ARG13       0.2205
     20  NE        55.6480   62.0960   61.7020 N.pl3  13  ARG13      -0.0865
     21  CZ        56.9270   62.4450   61.8590 C.cat  13  ARG13       0.5346
     22  NH1       57.9080   61.6680   61.3910 N.pl3  13  ARG13       0.1354
     23  NH2       57.2210   63.5800   62.4830 N.pl3  13  ARG13       0.1354
     24  N         53.1350   55.7380   61.0310 N.am   14  GLY14      -0.1940
     25  CA        52.2150   54.6200   61.1080 C.3    14  GLY14       0.2014
     26  C         51.2130   54.5140   59.9600 C.2    14  GLY14       0.2639
     27  O         50.2030   53.8240   60.0920 O.2    14  GLY14      -0.2714
     28  N         51.4950   55.1350   58.8130 N.am   15  LYS15      -0.1963
     29  CA        50.5690   55.0750   57.6760 C.3    15  LYS15       0.1728
     30  C         50.3840   53.6670   57.1590 C.2    15  LYS15       0.2617
     31  O         49.2620   53.1900   57.0370 O.2    15  LYS15      -0.2715
     32  CB        51.0270   55.9790   56.5390 C.3    15  LYS15       0.0311
     33  CG        50.9750   57.4750   56.8670 C.3    15  LYS15       0.0038
     34  CD        51.2610   58.3420   55.6230 C.3    15  LYS15       0.0206
     35  CE        52.6180   58.0140   54.9770 C.3    15  LYS15       0.1093
     36  NZ        53.8020   58.3730   55.8360 N.3    15  LYS15      -0.1314
     37  N         51.4910   52.9920   56.8750 N.am   16  THR16      -0.1937
     38  CA        51.4470   51.6200   56.3740 C.3    16  THR16       0.2028
     39  C         50.7760   50.7010   57.4060 C.2    16  THR16       0.2642
     40  O         50.0000   49.8080   57.0560 O.2    16  THR16      -0.2714
     41  CB        52.8710   51.1230   56.0440 C.3    16  THR16       0.1808
     42  OG1       53.4700   52.0350   55.1170 O.3    16  THR16      -0.2208
     43  CG2       52.8480   49.7440   55.4340 C.3    16  THR16       0.0379
     44  N         51.0550   50.9540   58.6780 N.am   17  TYR17      -0.1959
     45  CA        50.4740   50.1810   59.7480 C.3    17  TYR17       0.1771
     46  C         48.9290   50.3240   59.7070 C.2    17  TYR17       0.2619
     47  O         48.1850   49.3270   59.7250 O.2    17  TYR17      -0.2715
     48  CB        51.0490   50.6750   61.0800 C.3    17  TYR17       0.0574
     49  CG        50.4250   50.0340   62.2850 C.ar   17  TYR17      -0.0198
     50  CD1       50.9160   48.8250   62.7730 C.ar   17  TYR17      -0.0009
     51  CD2       49.3280   50.6230   62.9330 C.ar   17  TYR17      -0.0009
     52  CE1       50.3410   48.2010   63.8770 C.ar   17  TYR17       0.0417
     53  CE2       48.7400   50.0080   64.0410 C.ar   17  TYR17       0.0417
     54  CZ        49.2570   48.7920   64.5110 C.ar   17  TYR17       0.1957
     55  OH        48.7210   48.1760   65.6290 O.3    17  TYR17      -0.2866
     56  N         48.4620   51.5670   59.6410 N.am   18  ILE18      -0.1977
     57  CA        47.0360   51.8590   59.5900 C.3    18  ILE18       0.1596
     58  C         46.4450   51.3170   58.3000 C.2    18  ILE18       0.2287
     59  O         45.3690   50.7200   58.2930 O.2    18  ILE18      -0.2864
     60  CB        46.7730   53.3720   59.6640 C.3    18  ILE18       0.0276
     61  CG1       47.1470   53.9050   61.0520 C.3    18  ILE18       0.0022
     62  CG2       45.3200   53.6820   59.2500 C.3    18  ILE18       0.0022
     63  CD1       47.3240   55.4260   61.1050 C.3    18  ILE18       0.0001
     64  N         50.9600   50.2570   48.2600 N.3    37  ASN37      -0.1240
     65  CA        52.0780   50.9480   48.8970 C.3    37  ASN37       0.1653
     66  C         53.0350   51.4820   47.8560 C.2    37  ASN37       0.2266
     67  O         53.7920   50.7120   47.2730 O.2    37  ASN37      -0.2867
     68  CB        52.8220   49.9630   49.7990 C.3    37  ASN37       0.1155
     69  CG        53.8710   50.6360   50.6540 C.2    37  ASN37       0.2627
     70  OD1       54.9140   51.0730   50.1680 O.2    37  ASN37      -0.2716
     71  ND2       53.5860   50.7510   51.9340 N.am   37  ASN37      -0.0877
     72  N         48.6000   54.1350   49.7800 N.3    92  ASP92      -0.1225
     73  CA        49.5450   54.4320   50.8320 C.3    92  ASP92       0.1805
     74  C         50.8260   55.1030   50.3540 C.2    92  ASP92       0.2598
     75  O         51.7160   54.4620   49.7960 O.2    92  ASP92      -0.2718
     76  CB        49.8030   53.1210   51.5860 C.3    92  ASP92       0.1424
     77  CG        50.7610   53.2710   52.7360 C.2    92  ASP92       0.3668
     78  OD1       51.0440   54.4030   53.1860 O.co2  92  ASP92      -0.2456
     79  OD2       51.2500   52.2270   53.1900 O.co2  92  ASP92      -0.2456
     80  N         50.9170   56.4010   50.6210 N.am   93  ALA93      -0.1966
     81  CA        52.0550   57.2520   50.2560 C.3    93  ALA93       0.1728
     82  C         52.0140   58.4490   51.2100 C.2    93  ALA93       0.2616
     83  O         51.0560   58.5950   51.9630 O.2    93  ALA93      -0.2715
     84  CB        51.9290   57.7240   48.7850 C.3    93  ALA93       0.0334
     85  N         53.0360   59.2970   51.1920 N.am   94  THR94      -0.1951
     86  CA        53.0780   60.4630   52.0850 C.3    94  THR94       0.1897
     87  C         51.9640   61.4350   51.7380 C.2    94  THR94       0.2313
     88  O         51.2610   61.9080   52.6150 O.2    94  THR94      -0.2863
     89  CB        54.4460   61.1790   52.0230 C.3    94  THR94       0.1794
     90  OG1       54.8390   61.3100   50.6540 O.3    94  THR94      -0.2208
     91  CG2       55.5170   60.3760   52.7670 C.3    94  THR94       0.0378
     92  N         47.8840   60.8540   59.2890 N.3   120  SER120     -0.1202
     93  CA        48.4480   60.4590   60.5720 C.3   120  SER120      0.2020
     94  C         49.5240   61.4640   60.9560 C.2   120  SER120      0.2619
     95  O         50.4680   61.7030   60.1980 O.2   120  SER120     -0.2717
     96  CB        48.9920   59.0380   60.5210 C.3   120  SER120      0.2103
     97  OG        49.4570   58.6670   61.7970 O.3   120  SER120     -0.2182
     98  N         49.3350   62.0960   62.1080 N.am  121  ILE121     -0.1965
     99  CA        50.2340   63.1290   62.6030 C.3   121  ILE121      0.1727
    100  C         50.9380   62.7500   63.9060 C.2   121  ILE121      0.2616
    101  O         50.2870   62.3470   64.8770 O.2   121  ILE121     -0.2715
    102  CB        49.4420   64.4490   62.8460 C.3   121  ILE121      0.0290
    103  CG1       48.8700   64.9690   61.5230 C.3   121  ILE121      0.0022
    104  CG2       50.3170   65.4850   63.5210 C.3   121  ILE121      0.0023
    105  CD1       47.8760   66.0880   61.6650 C.3   121  ILE121      0.0001
    106  N         52.2630   62.9160   63.9330 N.am  122  CYS122     -0.1968
    107  CA        53.0700   62.6440   65.1260 C.3   122  CYS122      0.1712
    108  C         54.2050   63.6840   65.2490 C.2   122  CYS122      0.2296
    109  O         54.9710   63.9130   64.3190 O.2   122  CYS122     -0.2864
    110  CB        53.6250   61.2110   65.1080 C.3   122  CYS122      0.0983
    111  SG        54.5240   60.7250   66.6280 S.3   122  CYS122     -0.0798
    112  N         58.6380   58.6160   69.8970 N.3   127  VAL127     -0.1245
    113  CA        57.7750   57.7170   69.1340 C.3   127  VAL127      0.1561
    114  C         58.3560   57.5360   67.7190 C.2   127  VAL127      0.2260
    115  O         58.5220   56.4080   67.2260 O.2   127  VAL127     -0.2867
    116  CB        56.3230   58.2690   69.0610 C.3   127  VAL127      0.0252
    117  CG1       55.4420   57.4010   68.1400 C.3   127  VAL127      0.0019
    118  CG2       55.7280   58.2990   70.4410 C.3   127  VAL127      0.0019
    119  N         59.6850   54.2250   66.1830 N.3   131  ASN131     -0.1240
    120  CA        59.1990   53.7050   64.9120 C.3   131  ASN131      0.1653
    121  C         60.3510   53.3260   63.9720 C.2   131  ASN131      0.2266
    122  O         60.3380   52.2530   63.3670 O.2   131  ASN131     -0.2867
    123  CB        58.2720   54.7260   64.2430 C.3   131  ASN131      0.1155
    124  CG        57.0240   55.0360   65.0740 C.2   131  ASN131      0.2627
    125  OD1       56.3320   56.0240   64.8200 O.2   131  ASN131     -0.2716
    126  ND2       56.7420   54.2080   66.0790 N.am  131  ASN131     -0.0877
    127  N         62.0940   50.1780   65.4070 N.3   134  GLN134     -0.1231
    128  CA        61.0610   49.1500   65.3230 C.3   134  GLN134      0.1698
    129  C         60.6440   48.6430   63.9430 C.2   134  GLN134      0.2592
    130  O         60.3600   47.4450   63.7790 O.2   134  GLN134     -0.2718
    131  CB        59.8300   49.6210   66.0950 C.3   134  GLN134      0.0381
    132  CG        58.6440   48.7080   66.0360 C.3   134  GLN134      0.0905
    133  CD        57.4840   49.2560   66.8230 C.2   134  GLN134      0.2608
    134  OE1       57.6290   50.2370   67.5630 O.2   134  GLN134     -0.2717
    135  NE2       56.3200   48.6310   66.6770 N.am  134  GLN134     -0.0878
    136  N         60.5740   49.5350   62.9590 N.am  135  VAL135     -0.1966
    137  CA        60.1450   49.1110   61.6380 C.3   135  VAL135      0.1727
    138  C         61.0430   49.5090   60.4860 C.2   135  VAL135      0.2616
    139  O         61.1690   48.7530   59.5240 O.2   135  VAL135     -0.2715
    140  CB        58.7070   49.5970   61.3130 C.3   135  VAL135      0.0290
    141  CG1       57.7110   49.0850   62.3430 C.3   135  VAL135      0.0023
    142  CG2       58.6590   51.1040   61.2400 C.3   135  VAL135      0.0023
    143  N         61.6930   50.6640   60.5970 N.am  136  LYS136     -0.1977
    144  CA        62.5450   51.1810   59.5230 C.3   136  LYS136      0.1596
    145  C         63.9090   50.5200   59.3130 C.2   136  LYS136      0.2287
    146  O         64.2590   50.1800   58.1890 O.2   136  LYS136     -0.2864
    147  CB        62.7140   52.6960   59.6720 C.3   136  LYS136      0.0298
    148  CG        61.3980   53.4540   59.7790 C.3   136  LYS136      0.0038
    149  CD        60.5640   53.2550   58.5230 C.3   136  LYS136      0.0206
    150  CE        59.1620   53.8390   58.6710 C.3   136  LYS136      0.1093
    151  NZ        58.3380   53.6380   57.4430 N.3   136  LYS136     -0.1314
    152  N         67.5570   58.1090   57.2610 N.3   154  PHE154     -0.1241
    153  CA        66.1120   58.2310   57.4040 C.3   154  PHE154      0.1605
    154  C         65.6570   59.5920   57.9680 C.2   154  PHE154      0.2264
    155  O         64.6950   60.1730   57.4720 O.2   154  PHE154     -0.2867
    156  CB        65.5290   57.0790   58.2180 C.3   154  PHE154      0.0534
    157  CG        64.0340   56.9850   58.1190 C.ar  154  PHE154     -0.0203
    158  CD1       63.4270   56.6170   56.9170 C.ar  154  PHE154     -0.0042
    159  CD2       63.2250   57.2770   59.2140 C.ar  154  PHE154     -0.0042
    160  CE1       62.0320   56.5470   56.8100 C.ar  154  PHE154     -0.0003
    161  CE2       61.8340   57.2080   59.1160 C.ar  154  PHE154     -0.0003
    162  CZ        61.2410   56.8410   57.9120 C.ar  154  PHE154     -0.0000
    163  N         65.7990   61.9420   55.5310 N.3   157  ARG157     -0.1245
    164  CA        64.7390   61.5560   54.6050 C.3   157  ARG157      0.1563
    165  C         63.4070   62.2130   55.0270 C.2   157  ARG157      0.2260
    166  O         62.6810   62.7720   54.1940 O.2   157  ARG157     -0.2867
    167  CB        64.6410   60.0280   54.5570 C.3   157  ARG157      0.0307
    168  CG        63.8710   59.4830   53.3960 C.3   157  ARG157      0.0489
    169  CD        64.1160   57.9940   53.2500 C.3   157  ARG157      0.2205
    170  NE        63.0030   57.3220   52.5770 N.pl3 157  ARG157     -0.0865
    171  CZ        62.9330   56.0100   52.3720 C.cat 157  ARG157      0.5346
    172  NH1       63.9150   55.2120   52.7770 N.pl3 157  ARG157      0.1354
    173  NH2       61.8710   55.4930   51.7770 N.pl3 157  ARG157      0.1354
    174  N         44.4260   61.7710   62.4930 N.3   181  ILE181     -0.1245
    175  CA        44.7030   61.0550   63.7220 C.3   181  ILE181      0.1561
    176  C         45.9220   61.6840   64.3490 C.2   181  ILE181      0.2260
    177  O         46.9410   61.8650   63.6850 O.2   181  ILE181     -0.2867
    178  CB        45.0120   59.5990   63.4350 C.3   181  ILE181      0.0252
    179  CG1       43.8150   58.9660   62.7070 C.3   181  ILE181      0.0019
    180  CG2       45.4070   58.8920   64.7360 C.3   181  ILE181      0.0019
    181  CD1       44.1400   57.7340   61.8950 C.3   181  ILE181      0.0001
    182  N         48.8950   59.4250   68.3300 N.3   184  VAL184     -0.1245
    183  CA        48.8010   57.9830   68.1800 C.3   184  VAL184      0.1561
    184  C         47.3980   57.4990   68.4430 C.2   184  VAL184      0.2260
    185  O         47.1920   56.4330   69.0190 O.2   184  VAL184     -0.2867
    186  CB        49.8380   57.1910   69.0550 C.3   184  VAL184      0.0252
    187  CG1       50.2110   55.8990   68.3740 C.3   184  VAL184      0.0019
    188  CG2       51.1060   58.0060   69.3350 C.3   184  VAL184      0.0019
    189  N         47.8700   51.4640   69.6530 N.3   210  VAL210     -0.1245
    190  CA        49.1530   50.7590   69.6660 C.3   210  VAL210      0.1561
    191  C         49.6740   50.5560   71.0910 C.2   210  VAL210      0.2260
    192  O         50.8710   50.4150   71.3230 O.2   210  VAL210     -0.2867
    193  CB        50.2400   51.4310   68.7850 C.3   210  VAL210      0.0252
    194  CG1       49.8380   51.3740   67.3300 C.3   210  VAL210      0.0019
    195  CG2       50.4790   52.8490   69.2180 C.3   210  VAL210      0.0019
    196  N         53.9180   45.4160   64.9010 N.3   390  ALA390     -0.1231
    197  CA        53.8400   46.1740   63.6590 C.3   390  ALA390      0.1694
    198  C         53.5720   45.2410   62.4820 C.2   390  ALA390      0.2592
    199  O         54.3120   44.2750   62.2590 O.2   390  ALA390     -0.2718
    200  CB        55.1200   46.9650   63.4370 C.3   390  ALA390      0.0304
    201  N         52.4810   45.5190   61.7720 N.am  391  TYR391     -0.1976
    202  CA        52.0420   44.7590   60.5950 C.3   391  TYR391      0.1639
    203  C         51.5740   43.3270   60.8530 C.2   391  TYR391      0.2290
    204  O         50.9250   42.7350   59.9960 O.2   391  TYR391     -0.2864
    205  CB        53.1320   44.7240   59.5220 C.3   391  TYR391      0.0560
    206  CG        53.7960   46.0470   59.2670 C.ar  391  TYR391     -0.0198
    207  CD1       53.0590   47.2300   59.2770 C.ar  391  TYR391     -0.0009
    208  CD2       55.1700   46.1200   59.0270 C.ar  391  TYR391     -0.0009
    209  CE1       53.6700   48.4510   59.0560 C.ar  391  TYR391      0.0417
    210  CE2       55.7920   47.3370   58.8030 C.ar  391  TYR391      0.0417
    211  CZ        55.0310   48.4950   58.8210 C.ar  391  TYR391      0.1957
    212  OH        55.6230   49.7020   58.5990 O.3   391  TYR391     -0.2866
@<TRIPOS>BOND
     1    67    66    2
     2    66    65    1
     3    64    65    1
     4    84    81    1
     5    65    68    1
     6    72    73    1
     7    75    74    2
     8    68    69    1
     9    70    69    2
    10    81    80    1
    11    81    82    1
    12    74    80   am
    13    74    73    1
    14    90    89    1
    15    69    71   am
    16    73    76    1
    17    85    82   am
    18    85    86    1
    19    82    83    2
    20    76    77    1
    21    87    86    1
    22    87    88    2
    23   173   171    1
    24    89    86    1
    25    89    91    1
    26   171   170    2
    27   171   172    1
    28   170   169    1
    29    77    78   ar
    30    77    79   ar
    31   169   168    1
    32   168   167    1
    33   166   165    2
    34   167   164    1
    35   164   165    1
    36   164   163    1
    37    35    34    1
    38    35    36    1
    39    42    41    1
    40     6     7    1
    41     6     5    1
    42    43    41    1
    43    34    33    1
    44    41    38    1
    45     7     1    1
    46     5     2    1
    47    38    37    1
    48    38    39    1
    49    32    33    1
    50    32    29    1
    51   160   158   ar
    52   160   162   ar
    53     1     2    1
    54    37    30   am
    55   158   157   ar
    56     2     3    1
    57    31    30    2
    58    40    39    2
    59    30    29    1
    60   152   153    1
    61   153   154    1
    62   153   156    1
    63    39    44   am
    64   151   150    1
    65   155   154    2
    66    29    28    1
    67   162   161   ar
    68   157   156    1
    69   157   159   ar
    70   146   145    2
    71    59    58    2
    72    58    57    1
    73     3     8   am
    74     3     4    2
    75   149   150    1
    76   149   148    1
    77   212   211    1
    78    44    45    1
    79     8     9    1
    80   210   211   ar
    81   210   208   ar
    82    28    26   am
    83   211   209   ar
    84   208   206   ar
    85   209   207   ar
    86   161   159   ar
    87    62    60    1
    88   206   207   ar
    89   206   205    1
    90    92    93    1
    91   145   144    1
    92   205   202    1
    93   144   147    1
    94   144   143    1
    95   139   138    2
    96    57    56    1
    97    57    60    1
    98    56    46   am
    99    60    61    1
   100   147   148    1
   101    46    47    2
   102    46    45    1
   103    45    48    1
   104    26    27    2
   105    26    25    1
   106   204   203    2
   107     9    12    1
   108     9    10    1
   109    95    94    2
   110    13    10   am
   111    13    14    1
   112   138   143   am
   113   138   137    1
   114    96    93    1
   115    96    97    1
   116    93    94    1
   117   202   203    1
   118   202   201    1
   119    17    18    1
   120    17    14    1
   121    94    98   am
   122    10    11    2
   123    19    18    1
   124    19    20    1
   125    24    25    1
   126    24    15   am
   127    61    63    1
   128    48    49    1
   129    14    15    1
   130   142   140    1
   131   140   137    1
   132   140   141    1
   133    15    16    2
   134    22    21    1
   135   103   105    1
   136   103   102    1
   137   137   136    1
   138    20    21    2
   139   201   198   am
   140    21    23    1
   141   181   179    1
   142    98    99    1
   143   199   198    2
   144    49    50   ar
   145    49    51   ar
   146   198   197    1
   147   174   175    1
   148    99   102    1
   149    99   100    1
   150   179   178    1
   151    50    52   ar
   152   102   104    1
   153    51    53   ar
   154   136   129   am
   155   122   121    2
   156   178   175    1
   157   178   180    1
   158   200   197    1
   159   197   196    1
   160   177   176    2
   161   175   176    1
   162   130   129    2
   163    52    54   ar
   164   100   106   am
   165   100   101    2
   166   106   107    1
   167   129   128    1
   168   121   120    1
   169    53    54   ar
   170   123   120    1
   171   123   124    1
   172   109   108    2
   173    54    55    1
   174   125   124    2
   175   120   119    1
   176   124   126   am
   177   110   107    1
   178   110   111    1
   179   107   108    1
   180   128   127    1
   181   128   131    1
   182   132   131    1
   183   132   133    1
   184   135   133   am
   185   133   134    2
   186   115   114    2
   187   194   193    1
   188   114   113    1
   189   117   116    1
   190   183   182    1
   191   183   184    1
   192   183   186    1
   193   187   186    1
   194   184   185    2
   195   193   195    1
   196   193   190    1
   197   186   188    1
   198   116   113    1
   199   116   118    1
   200   113   112    1
   201   189   190    1
   202   190   191    1
   203   191   192    2
