@<TRIPOS>MOLECULE
tmp/1bioA00.pdb
 78 74 0 0 0
SMALL
GASTEIGER

@<TRIPOS>ATOM
      1  N         13.5670    8.3480    5.9510 N.3    26  CYS26      -0.1235
      2  CA        13.2740    7.1190    5.2420 C.3    26  CYS26       0.1677
      3  C         14.0040    5.9200    5.8440 C.2    26  CYS26       0.2270
      4  O         14.9990    6.0700    6.5500 O.2    26  CYS26      -0.2867
      5  CB        13.7260    7.2480    3.7830 C.3    26  CYS26       0.0956
      6  SG        12.6320    8.2420    2.7170 S.3    26  CYS26      -0.0801
      7  N          4.1650    2.2520    5.4430 N.3   179  CYS179     -0.1221
      8  CA         3.5450    3.5420    5.2510 C.3   179  CYS179      0.1808
      9  C          4.5840    4.6610    5.1970 C.2   179  CYS179      0.2601
     10  O          5.7850    4.3990    5.1250 O.2   179  CYS179     -0.2717
     11  CB         2.5270    3.7790    6.3680 C.3   179  CYS179      0.0970
     12  SG         1.1420    4.8970    5.9660 S.3   179  CYS179     -0.0800
     13  N          4.1090    5.9030    5.2100 N.am  180  LYS180     -0.1965
     14  CA         4.9830    7.0550    5.1430 C.3   180  LYS180      0.1728
     15  C          6.0600    6.9660    6.2140 C.2   180  LYS180      0.2616
     16  O          5.7700    6.7970    7.3940 O.2   180  LYS180     -0.2715
     17  CB         4.1810    8.3450    5.3140 C.3   180  LYS180      0.0311
     18  CG         4.9750    9.5710    4.9070 C.3   180  LYS180      0.0038
     19  CD         4.4550   10.8140    5.5660 C.3   180  LYS180      0.0206
     20  CE         5.2980   12.0170    5.1570 C.3   180  LYS180      0.1093
     21  NZ         5.5670   12.0570    3.6800 N.3   180  LYS180     -0.1314
     22  N          7.3090    7.0890    5.7820 N.am  181  GLY181     -0.1955
     23  CA         8.4300    7.0060    6.6960 C.3   181  GLY181      0.1869
     24  C          9.1180    5.6510    6.6070 C.2   181  GLY181      0.2309
     25  O         10.2480    5.4960    7.0780 O.2   181  GLY181     -0.2863
     26  N          9.3130    4.0690    3.5570 N.3   183  SER183     -0.1217
     27  CA         9.8370    4.0880    2.1990 C.3   183  SER183      0.1889
     28  C         11.3510    3.9990    2.2430 C.2   183  SER183      0.2288
     29  O         11.9820    4.6340    3.0800 O.2   183  SER183     -0.2866
     30  CB         9.3870    5.4010    1.6010 C.3   183  SER183      0.2089
     31  OG         7.9700    5.3680    1.5080 O.3   183  SER183     -0.2183
     32  N         11.0560   -0.6990   -0.2260 N.3   197  VAL197     -0.1231
     33  CA         9.7520   -0.0190   -0.1890 C.3   197  VAL197      0.1692
     34  C          9.7940    1.2150   -1.1040 C.2   197  VAL197      0.2593
     35  O         10.6050    2.1260   -0.8990 O.2   197  VAL197     -0.2718
     36  CB         9.4050    0.4310    1.2700 C.3   197  VAL197      0.0266
     37  CG1        8.0970    1.2060    1.2850 C.3   197  VAL197      0.0020
     38  CG2        9.3440   -0.7720    2.1830 C.3   197  VAL197      0.0020
     39  N          8.9280    1.2570   -2.1120 N.am  198  THR198     -0.1939
     40  CA         8.9270    2.3930   -3.0200 C.3   198  THR198      0.2028
     41  C          8.5200    3.6700   -2.2980 C.2   198  THR198      0.2643
     42  O          7.8100    3.6190   -1.2910 O.2   198  THR198     -0.2714
     43  CB         8.0210    2.1240   -4.2160 C.3   198  THR198      0.1808
     44  OG1        6.6230    2.1640   -3.7310 O.3   198  THR198     -0.2208
     45  CG2        8.1880    0.7350   -4.8110 C.3   198  THR198      0.0379
     46  N          8.9570    4.8240   -2.8000 N.am  199  SER199     -0.1935
     47  CA         8.6530    6.0590   -2.1100 C.3   199  SER199      0.2055
     48  C          7.7170    7.0470   -2.7860 C.2   199  SER199      0.2644
     49  O          7.8750    8.2700   -2.6500 O.2   199  SER199     -0.2714
     50  CB         9.9460    6.7980   -1.7260 C.3   199  SER199      0.2130
     51  OG        10.7520    6.9980   -2.8780 O.3   199  SER199     -0.2179
     52  N          6.7420    6.5270   -3.4650 N.am  200  GLY200     -0.1939
     53  CA         5.6850    7.3670   -4.0150 C.3   200  GLY200      0.2014
     54  C          4.5710    7.3970   -2.9720 C.2   200  GLY200      0.2640
     55  O          4.3190    6.4060   -2.2740 O.2   200  GLY200     -0.2714
     56  N          3.9200    8.5300   -2.8380 N.am  201  SER201     -0.1935
     57  CA         2.8150    8.6370   -1.8820 C.3   201  SER201      0.2055
     58  C          1.7750    7.5860   -2.2490 C.2   201  SER201      0.2642
     59  O          1.4830    7.3610   -3.4300 O.2   201  SER201     -0.2714
     60  CB         2.1920   10.0290   -1.9340 C.3   201  SER201      0.2130
     61  OG         2.9650   10.9360   -1.1630 O.3   201  SER201     -0.2179
     62  N          1.2450    6.9570   -1.2350 N.am  202  ARG202     -0.1977
     63  CA         0.2420    5.9120   -1.4150 C.3   202  ARG202      0.1597
     64  C         -0.5160    5.7310   -0.1160 C.2   202  ARG202      0.2287
     65  O          0.0220    5.9440    0.9770 O.2   202  ARG202     -0.2864
     66  CB         0.9370    4.6050   -1.8050 C.3   202  ARG202      0.0334
     67  CG         0.0060    3.3920   -1.7850 C.3   202  ARG202      0.0492
     68  CD         0.7430    2.0740   -2.0350 C.3   202  ARG202      0.2205
     69  NE         1.7820    1.7980   -1.0310 N.pl3 202  ARG202     -0.0865
     70  CZ         1.6040    0.9970    0.0270 C.cat 202  ARG202      0.5346
     71  NH1        0.4320    0.3810    0.2360 N.pl3 202  ARG202      0.1354
     72  NH2        2.5470    0.7450    0.9440 N.pl3 202  ARG202      0.1354
     73  N         -2.2900    3.6850    2.8350 N.3   204  CYS204     -0.1235
     74  CA        -1.7770    2.5020    3.5960 C.3   204  CYS204      0.1677
     75  C         -2.8760    1.6730    4.2590 C.2   204  CYS204      0.2270
     76  O         -3.8370    2.2130    4.8070 O.2   204  CYS204     -0.2867
     77  CB        -0.8340    2.9500    4.7150 C.3   204  CYS204      0.0956
     78  SG         0.3910    4.2360    4.1680 S.3   204  CYS204     -0.0801
@<TRIPOS>BOND
     1    45    43    1
     2    43    44    1
     3    43    40    1
     4    53    52    1
     5    53    54    1
     6    52    48   am
     7    59    58    2
     8    40    41    1
     9    40    39    1
    10    54    56   am
    11    54    55    2
    12    51    50    1
    13    56    57    1
    14    46    41   am
    15    46    47    1
    16    48    49    2
    17    48    47    1
    18    41    42    2
    19    58    57    1
    20    58    62   am
    21    39    34   am
    22    47    50    1
    23    68    67    1
    24    68    69    1
    25    60    57    1
    26    60    61    1
    27    66    67    1
    28    66    63    1
    29    63    62    1
    30    63    64    1
    31    34    35    2
    32    34    33    1
    33    69    70    2
    34    32    33    1
    35    33    36    1
    36    64    65    2
    37    70    71    1
    38    70    72    1
    39    36    37    1
    40    36    38    1
    41    31    30    1
    42    30    27    1
    43    27    28    1
    44    27    26    1
    45    28    29    2
    46     6     5    1
    47    73    74    1
    48    74    75    1
    49    74    77    1
    50    21    20    1
    51     5     2    1
    52    78    77    1
    53    78    12    1
    54    75    76    2
    55    18    17    1
    56    18    19    1
    57    10     9    2
    58    14    13    1
    59    14    17    1
    60    14    15    1
    61    20    19    1
    62     9    13   am
    63     9     8    1
    64     2     3    1
    65     2     1    1
    66     8     7    1
    67     8    11    1
    68    22    15   am
    69    22    23    1
    70     3     4    2
    71    12    11    1
    72    15    16    2
    73    24    23    1
    74    24    25    2
