@<TRIPOS>MOLECULE
tmp/1biwB00.pdb
 143 143 0 0 0
SMALL
GASTEIGER

@<TRIPOS>ATOM
      1  N         11.1260   43.0540   48.8920 N.3    79  GLY79      -0.1210
      2  CA        11.2490   44.4220   49.3850 C.3    79  GLY79       0.1956
      3  C         10.1510   45.3910   49.0310 C.2    79  GLY79       0.2612
      4  O          9.0310   45.0680   48.6310 O.2    79  GLY79      -0.2717
      5  N         10.5190   46.6310   49.3130 N.am   80  ASN80      -0.1960
      6  CA         9.5590   47.7570   49.3180 C.3    80  ASN80       0.1819
      7  C          8.1370   47.5480   49.8760 C.2    80  ASN80       0.2621
      8  O          7.9620   47.4940   51.0790 O.2    80  ASN80      -0.2715
      9  CB         9.5000   48.4560   47.9370 C.3    80  ASN80       0.1195
     10  CG        10.8530   48.9920   47.5290 C.2    80  ASN80       0.2630
     11  OD1       11.9060   48.4270   47.7580 O.2    80  ASN80      -0.2716
     12  ND2       10.8120   50.1820   46.9770 N.am   80  ASN80      -0.0877
     13  N          7.1450   47.4460   48.9520 N.am   81  VAL81      -0.1963
     14  CA         5.8300   47.0890   49.4510 C.3    81  VAL81       0.1727
     15  C          5.6750   45.6220   49.7920 C.2    81  VAL81       0.2616
     16  O          6.0680   44.7460   49.0240 O.2    81  VAL81      -0.2715
     17  CB         4.6600   47.6360   48.6410 C.3    81  VAL81       0.0290
     18  CG1        3.2210   47.1770   48.8650 C.3    81  VAL81       0.0023
     19  CG2        4.6910   49.0140   47.9750 C.3    81  VAL81       0.0023
     20  N          5.1770   45.4320   51.0240 N.am   82  LEU82      -0.1963
     21  CA         5.0610   44.0800   51.5650 C.3    82  LEU82       0.1728
     22  C          3.6820   43.4370   51.4320 C.2    82  LEU82       0.2616
     23  O          3.4960   42.2310   51.4810 O.2    82  LEU82      -0.2715
     24  CB         5.3550   44.1300   53.0170 C.3    82  LEU82       0.0311
     25  CG         6.5760   44.8050   53.5460 C.3    82  LEU82       0.0022
     26  CD1        6.5960   45.1780   55.0230 C.3    82  LEU82       0.0001
     27  CD2        7.9400   44.8000   52.9010 C.3    82  LEU82       0.0001
     28  N          2.7050   44.3390   51.2700 N.am   83  ALA83      -0.1963
     29  CA         1.2870   43.9980   51.1260 C.3    83  ALA83       0.1728
     30  C          0.3960   45.2000   50.8030 C.2    83  ALA83       0.2616
     31  O          0.7990   46.3480   50.9670 O.2    83  ALA83      -0.2715
     32  CB         0.7420   43.3370   52.3830 C.3    83  ALA83       0.0334
     33  N         -0.8170   44.8870   50.3220 N.am   84  HIS84      -0.1959
     34  CA        -1.9010   45.8660   50.1650 C.3    84  HIS84       0.1787
     35  C         -3.3420   45.3350   50.3310 C.2    84  HIS84       0.2620
     36  O         -3.6810   44.2210   49.9660 O.2    84  HIS84      -0.2715
     37  CB        -1.7760   46.6840   48.8580 C.3    84  HIS84       0.0785
     38  CG        -1.8760   45.8890   47.5540 C.ar   84  HIS84       0.0821
     39  ND1       -1.1330   46.1780   46.4670 N.ar   84  HIS84      -0.2267
     40  CD2       -2.7330   44.8280   47.1920 C.ar   84  HIS84       0.1154
     41  CE1       -1.5140   45.3250   45.4670 C.ar   84  HIS84       0.1986
     42  NE2       -2.5210   44.4620   45.8850 N.ar   84  HIS84      -0.2212
     43  N         -4.2060   46.2180   50.8310 N.am   85  ALA85      -0.1977
     44  CA        -5.6140   45.8450   51.0210 C.3    85  ALA85       0.1597
     45  C         -6.6030   46.9810   50.7650 C.2    85  ALA85       0.2287
     46  O         -6.2530   48.1560   50.6520 O.2    85  ALA85      -0.2864
     47  CB        -5.8740   45.3250   52.4420 C.3    85  ALA85       0.0319
     48  N         11.9340   37.2800   58.9860 N.3   110  GLY110     -0.1210
     49  CA        11.6980   38.1150   57.7980 C.3   110  GLY110      0.1956
     50  C         10.5350   39.0650   57.9880 C.2   110  GLY110      0.2612
     51  O         10.5160   39.8580   58.9190 O.2   110  GLY110     -0.2717
     52  N          9.5310   38.9350   57.1130 N.am  111  THR111     -0.1952
     53  CA         8.2880   39.6870   57.3500 C.3   111  THR111      0.1897
     54  C          7.2150   38.9780   58.1760 C.2   111  THR111      0.2313
     55  O          6.6250   37.9800   57.7790 O.2   111  THR111     -0.2863
     56  CB         7.6710   40.2670   56.0410 C.3   111  THR111      0.1794
     57  OG1        8.6160   41.0500   55.3090 O.3   111  THR111     -0.2208
     58  CG2        6.5310   41.2220   56.3390 C.3   111  THR111      0.0378
     59  N          1.6930   42.2710   59.8490 N.3   116  VAL116     -0.1245
     60  CA         1.1190   42.7110   58.6070 C.3   116  VAL116      0.1561
     61  C         -0.3510   42.4890   58.3400 C.2   116  VAL116      0.2260
     62  O         -1.1090   43.4240   58.0840 O.2   116  VAL116     -0.2867
     63  CB         2.0590   42.4270   57.4860 C.3   116  VAL116      0.0252
     64  CG1        1.7040   42.6440   56.0330 C.3   116  VAL116      0.0019
     65  CG2        3.5460   42.5140   57.7320 C.3   116  VAL116      0.0019
     66  N         -2.3250   44.9340   60.2180 N.3   119  HIS119     -0.1226
     67  CA        -2.3130   46.2200   59.4990 C.3   119  HIS119      0.1752
     68  C         -3.2880   46.3500   58.3460 C.2   119  HIS119      0.2595
     69  O         -3.9950   47.3360   58.1900 O.2   119  HIS119     -0.2718
     70  CB        -0.8860   46.5320   59.0020 C.3   119  HIS119      0.0759
     71  CG        -0.7160   47.8980   58.3760 C.ar  119  HIS119      0.0818
     72  ND1       -0.2500   48.9770   59.0180 N.ar  119  HIS119     -0.2268
     73  CD2       -0.9860   48.2740   57.0680 C.ar  119  HIS119      0.1154
     74  CE1       -0.2140   50.0310   58.1840 C.ar  119  HIS119      0.1986
     75  NE2       -0.6820   49.6040   56.9430 N.ar  119  HIS119     -0.2212
     76  N         -3.2720   45.3050   57.5250 N.am  120  GLU120     -0.1979
     77  CA        -4.1140   45.2610   56.3160 C.3   120  GLU120      0.1602
     78  C         -5.5950   44.8940   56.5550 C.2   120  GLU120      0.2287
     79  O         -6.5030   45.3850   55.8740 O.2   120  GLU120     -0.2864
     80  CB        -3.4540   44.3760   55.2470 C.3   120  GLU120      0.0415
     81  CG        -1.9380   44.6380   54.9830 C.3   120  GLU120      0.1163
     82  CD        -1.6410   45.9170   54.2290 C.2   120  GLU120      0.3649
     83  OE1       -2.4230   46.3070   53.3740 O.co2 120  GLU120     -0.2457
     84  OE2       -0.6450   46.5720   54.4940 O.co2 120  GLU120     -0.2457
     85  N         -7.1060   48.0480   57.1120 N.3   123  HIS123     -0.1241
     86  CA        -7.6020   48.5900   55.8340 C.3   123  HIS123      0.1621
     87  C         -8.9380   48.0800   55.3430 C.2   123  HIS123      0.2264
     88  O         -9.8880   48.8230   55.1620 O.2   123  HIS123     -0.2867
     89  CB        -6.5870   48.3930   54.7230 C.3   123  HIS123      0.0745
     90  CG        -5.4050   49.3010   54.9280 C.ar  123  HIS123      0.0817
     91  ND1       -5.5320   50.6010   55.1920 N.ar  123  HIS123     -0.2268
     92  CD2       -4.0490   48.9950   54.8850 C.ar  123  HIS123      0.1154
     93  CE1       -4.2950   51.1300   55.3250 C.ar  123  HIS123      0.1986
     94  NE2       -3.3530   50.1440   55.1330 N.ar  123  HIS123     -0.2212
     95  N         -3.8620   55.2040   56.7570 N.3   129  HIS129     -0.1241
     96  CA        -2.6290   55.3780   57.5200 C.3   129  HIS129      0.1621
     97  C         -2.6660   56.4670   58.5600 C.2   129  HIS129      0.2264
     98  O         -2.9980   57.6270   58.3040 O.2   129  HIS129     -0.2867
     99  CB        -1.4250   55.5820   56.6010 C.3   129  HIS129      0.0745
    100  CG        -1.2290   54.3850   55.6950 C.ar  129  HIS129      0.0817
    101  ND1       -0.8040   54.4910   54.4260 N.ar  129  HIS129     -0.2268
    102  CD2       -1.4380   53.0280   55.9590 C.ar  129  HIS129      0.1154
    103  CE1       -0.7450   53.2400   53.8840 C.ar  129  HIS129      0.1986
    104  NE2       -1.1380   52.3080   54.8260 N.ar  129  HIS129     -0.2212
    105  N          0.2790   53.1530   61.2500 N.3   138  TYR138     -0.1228
    106  CA         1.4290   53.7630   60.5580 C.3   138  TYR138      0.1721
    107  C          1.9870   52.8820   59.4040 C.2   138  TYR138      0.2437
    108  O          2.0610   51.6650   59.4790 O.2   138  TYR138     -0.2733
    109  CB         2.4900   54.0690   61.6290 C.3   138  TYR138      0.0547
    110  CG         3.5440   55.0270   61.1220 C.ar  138  TYR138     -0.0200
    111  CD1        3.2530   56.4080   61.0630 C.ar  138  TYR138     -0.0009
    112  CD2        4.7810   54.5000   60.7120 C.ar  138  TYR138     -0.0009
    113  CE1        4.2070   57.2840   60.5230 C.ar  138  TYR138      0.0417
    114  CE2        5.7380   55.3790   60.1700 C.ar  138  TYR138      0.0417
    115  CZ         5.4280   56.7500   60.0540 C.ar  138  TYR138      0.1957
    116  OH         6.3380   57.6040   59.4460 O.3   138  TYR138     -0.2866
    117  N          2.3280   53.5250   58.2430 N.am  139  PRO139     -0.2718
    118  CA         2.7270   52.7210   57.0650 C.3   139  PRO139      0.1536
    119  C          4.1080   52.0090   57.0010 C.2   139  PRO139      0.2601
    120  O          4.5480   51.5270   55.9570 O.2   139  PRO139     -0.2715
    121  CB         2.5050   53.7230   55.9340 C.3   139  PRO139      0.0310
    122  CG         2.7440   55.1100   56.5580 C.3   139  PRO139      0.0237
    123  CD         2.2050   54.9530   57.9610 C.3   139  PRO139      0.0939
    124  N          4.7630   51.9570   58.1580 N.am  140  LEU140     -0.1918
    125  CA         6.0420   51.2520   58.2930 C.3   140  LEU140      0.1941
    126  C          5.8970   49.9860   59.0900 C.2   140  LEU140      0.2658
    127  O          5.2430   49.9640   60.1140 O.2   140  LEU140     -0.2711
    128  CB         6.9990   52.0500   59.1210 C.2   140  LEU140     -0.0041
    129  CG         8.0660   52.7880   58.4060 C.2   140  LEU140     -0.0457
    130  CD1        8.2150   52.8820   56.9100 C.3   140  LEU140      0.0261
    131  CD2        8.8120   53.8720   59.1630 C.3   140  LEU140      0.0261
    132  N          6.5890   48.9510   58.6060 N.am  141  TYR141     -0.1971
    133  CA         6.7490   47.7580   59.4490 C.3   141  TYR141      0.1640
    134  C          8.0420   47.8010   60.2560 C.2   141  TYR141      0.2290
    135  O          9.1490   47.7060   59.7160 O.2   141  TYR141     -0.2864
    136  CB         6.5980   46.5200   58.5510 C.3   141  TYR141      0.0560
    137  CG         7.0500   45.2140   59.1680 C.ar  141  TYR141     -0.0198
    138  CD1        6.1820   44.4330   59.9540 C.ar  141  TYR141     -0.0009
    139  CD2        8.3650   44.8120   58.8870 C.ar  141  TYR141     -0.0009
    140  CE1        6.6610   43.2100   60.4510 C.ar  141  TYR141      0.0417
    141  CE2        8.8400   43.5990   59.3850 C.ar  141  TYR141      0.0417
    142  CZ         7.9820   42.8080   60.1600 C.ar  141  TYR141      0.1957
    143  OH         8.4680   41.6140   60.6350 O.3   141  TYR141     -0.2866
@<TRIPOS>BOND
     1    41    42   ar
     2    41    39   ar
     3    42    40   ar
     4    39    38   ar
     5    12    10   am
     6    40    38   ar
     7    10    11    2
     8    10     9    1
     9    38    37    1
    10     9     6    1
    11    19    17    1
    12     4     3    2
    13    17    18    1
    14    17    14    1
    15    37    34    1
    16     1     2    1
    17    13    14    1
    18    13     7   am
    19    16    15    2
    20     3     5   am
    21     3     2    1
    22     5     6    1
    23     6     7    1
    24    14    15    1
    25    15    20   am
    26     7     8    2
    27    36    35    2
    28    34    33    1
    29    34    35    1
    30    33    30   am
    31    35    43   am
    32    46    45    2
    33    45    44    1
    34    30    31    2
    35    30    29    1
    36    43    44    1
    37    44    47    1
    38    20    21    1
    39    29    28    1
    40    29    32    1
    41    28    22   am
    42    22    23    2
    43    22    21    1
    44    21    24    1
    45    27    25    1
    46    24    25    1
    47    83    82   ar
    48    25    26    1
    49   103   101   ar
    50   103   104   ar
    51    82    84   ar
    52    82    81    1
    53   101   100   ar
    54    89    90    1
    55    89    86    1
    56   104   102   ar
    57    92    90   ar
    58    92    94   ar
    59    90    91   ar
    60    81    80    1
    61    94    93   ar
    62    88    87    2
    63    91    93   ar
    64    80    77    1
    65    57    56    1
    66    87    86    1
    67   100   102   ar
    68   100    99    1
    69    86    85    1
    70    79    78    2
    71   121   122    1
    72   121   118    1
    73   120   119    2
    74    64    63    1
    75    56    58    1
    76    56    53    1
    77    77    78    1
    78    77    76    1
    79   122   123    1
    80    99    96    1
    81    95    96    1
    82   130   129    1
    83    75    73   ar
    84    75    74   ar
    85   119   118    1
    86   119   124   am
    87   118   117    1
    88    73    71   ar
    89    52    53    1
    90    52    50   am
    91    53    54    1
    92    63    65    1
    93    63    60    1
    94    96    97    1
    95    76    68   am
    96    55    54    2
    97    49    50    1
    98    49    48    1
    99   123   117    1
   100    50    51    2
   101    62    61    2
   102   124   125    1
   103    74    72   ar
   104    69    68    2
   105   117   107   am
   106   125   126    1
   107   125   128    1
   108    98    97    2
   109    61    60    1
   110    68    67    1
   111    71    70    1
   112    71    72   ar
   113   129   128    2
   114   129   131    1
   115   136   137    1
   116   136   133    1
   117   132   126   am
   118   132   133    1
   119    60    59    1
   120   139   137   ar
   121   139   141   ar
   122    70    67    1
   123   126   127    2
   124   137   138   ar
   125   141   142   ar
   126   107   108    2
   127   107   106    1
   128   116   115    1
   129   133   134    1
   130    67    66    1
   131   135   134    2
   132   138   140   ar
   133   115   114   ar
   134   115   113   ar
   135   142   140   ar
   136   142   143    1
   137   114   112   ar
   138   113   111   ar
   139   106   105    1
   140   106   109    1
   141   112   110   ar
   142   111   110   ar
   143   110   109    1
