@<TRIPOS>MOLECULE
tmp/1bjgA01.pdb
 145 140 0 0 0
SMALL
GASTEIGER

@<TRIPOS>ATOM
      1  N         54.0140   72.8360   58.3070 N.3    19  ASP19      -0.1225
      2  CA        53.1000   71.7120   58.1430 C.3    19  ASP19       0.1805
      3  C         53.9220   70.4300   58.0150 C.2    19  ASP19       0.2597
      4  O         55.1510   70.4900   57.9660 O.2    19  ASP19      -0.2718
      5  CB        52.1830   71.9150   56.9460 C.3    19  ASP19       0.1424
      6  CG        52.8810   71.7360   55.6090 C.2    19  ASP19       0.3668
      7  OD1       54.0340   72.1890   55.4510 O.co2  19  ASP19      -0.2456
      8  OD2       52.2540   71.1470   54.6990 O.co2  19  ASP19      -0.2456
      9  N         53.2410   69.2880   57.9690 N.am   20  ARG20      -0.1979
     10  CA        53.8840   67.9730   57.8630 C.3    20  ARG20       0.1597
     11  C         55.0200   67.8960   56.8510 C.2    20  ARG20       0.2287
     12  O         55.9530   67.1160   57.0320 O.2    20  ARG20      -0.2864
     13  CB        52.8820   66.9120   57.5580 C.3    20  ARG20       0.0334
     14  CG        51.5170   67.4420   57.1820 C.3    20  ARG20       0.0492
     15  CD        50.8670   66.6590   56.0720 C.3    20  ARG20       0.2205
     16  NE        49.8480   67.4810   55.4300 N.pl3  20  ARG20      -0.0865
     17  CZ        49.7330   67.6480   54.1170 C.cat  20  ARG20       0.5346
     18  NH1       50.5710   67.0370   53.2870 N.pl3  20  ARG20       0.1354
     19  NH2       48.8140   68.4790   53.6370 N.pl3  20  ARG20       0.1354
     20  N         34.8410   76.9710   40.3710 N.3    50  HIS50      -0.1241
     21  CA        34.0330   76.0840   39.5450 C.3    50  HIS50       0.1621
     22  C         33.1820   75.1410   40.3960 C.2    50  HIS50       0.2264
     23  O         33.7050   74.2480   41.0540 O.2    50  HIS50      -0.2867
     24  CB        34.9050   75.2810   38.6150 C.3    50  HIS50       0.0745
     25  CG        35.8210   76.1070   37.7560 C.ar   50  HIS50       0.0817
     26  ND1       35.3610   77.0280   36.8360 N.ar   50  HIS50      -0.2268
     27  CD2       37.1730   76.1430   37.6760 C.ar   50  HIS50       0.1154
     28  CE1       36.3890   77.5950   36.2300 C.ar   50  HIS50       0.1986
     29  NE2       37.4990   77.0760   36.7210 N.ar   50  HIS50      -0.2212
     30  N         31.3110   72.7270   39.4400 N.3    52  ARG52      -0.1231
     31  CA        31.3290   71.3730   38.8890 C.3    52  ARG52       0.1694
     32  C         31.9200   70.2710   39.7780 C.2    52  ARG52       0.2592
     33  O         31.2550   69.2580   40.0350 O.2    52  ARG52      -0.2718
     34  CB        31.9890   71.3780   37.5730 C.3    52  ARG52       0.0321
     35  CG        32.0720   70.0060   36.9330 C.3    52  ARG52       0.0489
     36  CD        32.6230   70.0570   35.5220 C.3    52  ARG52       0.2205
     37  NE        33.0480   68.7290   35.0900 N.pl3  52  ARG52      -0.0865
     38  CZ        34.2130   68.1750   35.4190 C.cat  52  ARG52       0.5346
     39  NH1       35.0960   68.8310   36.1620 N.pl3  52  ARG52       0.1354
     40  NH2       34.5130   66.9670   34.9800 N.pl3  52  ARG52       0.1354
     41  N         33.1720   70.4300   40.1970 N.am   53  SER53      -0.1952
     42  CA        33.8110   69.4370   41.0560 C.3    53  SER53       0.1924
     43  C         33.1470   69.3810   42.4250 C.2    53  SER53       0.2314
     44  O         32.9910   68.3030   43.0020 O.2    53  SER53      -0.2863
     45  CB        35.2430   69.7220   41.2090 C.3    53  SER53       0.2116
     46  OG        35.9620   69.3710   40.0380 O.3    53  SER53      -0.2180
     47  N         40.1250   65.7440   41.7930 N.3    78  ILE78      -0.1245
     48  CA        40.5370   66.3260   43.0740 C.3    78  ILE78       0.1561
     49  C         40.9490   65.3240   44.1470 C.2    78  ILE78       0.2260
     50  O         41.5920   65.7000   45.1250 O.2    78  ILE78      -0.2867
     51  CB        39.4480   67.2590   43.6600 C.3    78  ILE78       0.0252
     52  CG1       38.1440   66.5340   43.7770 C.3    78  ILE78       0.0019
     53  CG2       39.3190   68.4990   42.8080 C.3    78  ILE78       0.0019
     54  CD1       37.0610   67.3170   44.4690 C.3    78  ILE78       0.0001
     55  N         45.0990   62.4590   43.9370 N.3    81  GLU81      -0.1231
     56  CA        46.2880   62.5890   44.7590 C.3    81  GLU81       0.1699
     57  C         46.3180   61.6530   45.9720 C.2    81  GLU81       0.2592
     58  O         47.3870   61.2010   46.3820 O.2    81  GLU81      -0.2718
     59  CB        46.3810   63.9820   45.2150 C.3    81  GLU81       0.0402
     60  CG        47.5320   64.2660   46.1440 C.3    81  GLU81       0.1161
     61  CD        47.4140   65.6020   46.8350 C.2    81  GLU81       0.3649
     62  OE1       46.5350   66.4130   46.4610 O.co2  81  GLU81      -0.2457
     63  OE2       48.2110   65.8340   47.7670 O.co2  81  GLU81      -0.2457
     64  N         45.1530   61.3540   46.5350 N.am   82  TRP82      -0.1976
     65  CA        45.0930   60.5190   47.7250 C.3    82  TRP82       0.1640
     66  C         44.7240   59.0680   47.4820 C.2    82  TRP82       0.2290
     67  O         45.0170   58.2060   48.3140 O.2    82  TRP82      -0.2864
     68  CB        44.1430   61.0950   48.6840 C.3    82  TRP82       0.0576
     69  CG        44.4150   62.5220   49.0390 C.ar   82  TRP82       0.0006
     70  CD1       43.7750   63.6290   48.5500 C.ar   82  TRP82       0.0946
     71  CD2       45.3900   63.0000   49.9690 C.ar   82  TRP82       0.0152
     72  NE1       44.2940   64.7660   49.1230 N.ar   82  TRP82      -0.2442
     73  CE2       45.2860   64.4070   49.9970 C.ar   82  TRP82       0.0810
     74  CE3       46.3400   62.3750   50.7820 C.ar   82  TRP82       0.0012
     75  CZ2       46.0980   65.2010   50.8070 C.ar   82  TRP82       0.0191
     76  CZ3       47.1500   63.1660   51.5920 C.ar   82  TRP82       0.0001
     77  CH2       47.0230   64.5650   51.5970 C.ar   82  TRP82       0.0015
     78  N         43.0280   75.3480   54.8360 N.3   168  ASN168     -0.1240
     79  CA        43.9160   76.0720   53.9380 C.3   168  ASN168      0.1653
     80  C         43.0070   77.1700   53.4020 C.2   168  ASN168      0.2266
     81  O         42.1700   76.9220   52.5290 O.2   168  ASN168     -0.2867
     82  CB        44.3470   75.1970   52.8480 C.3   168  ASN168      0.1155
     83  CG        45.4190   75.8270   51.9860 C.2   168  ASN168      0.2627
     84  OD1       45.4080   77.0330   51.7230 O.2   168  ASN168     -0.2716
     85  ND2       46.3470   75.0080   51.5290 N.am  168  ASN168     -0.0877
     86  N         43.3640   77.8710   49.3130 N.3   171  LEU171     -0.1231
     87  CA        43.0370   76.7480   48.4430 C.3   171  LEU171      0.1693
     88  C         41.7740   75.9400   48.7520 C.2   171  LEU171      0.2592
     89  O         41.0010   75.6210   47.8470 O.2   171  LEU171     -0.2718
     90  CB        44.2100   75.8530   48.4040 C.3   171  LEU171      0.0284
     91  CG        44.4570   74.9890   47.2720 C.3   171  LEU171      0.0019
     92  CD1       44.4330   75.7970   45.9870 C.3   171  LEU171      0.0001
     93  CD2       45.8170   74.3470   47.4670 C.3   171  LEU171      0.0001
     94  N         41.5520   75.6270   50.0240 N.am  172  GLY172     -0.1957
     95  CA        40.4080   74.8100   50.3830 C.3   172  GLY172      0.1869
     96  C         39.1290   75.4490   50.8750 C.2   172  GLY172      0.2309
     97  O         38.0420   75.0350   50.4570 O.2   172  GLY172     -0.2863
     98  N         36.0870   76.1660   48.5910 N.3   175  PHE175     -0.1227
     99  CA        35.4980   74.9050   48.1810 C.3   175  PHE175      0.1736
    100  C         34.6190   74.3460   49.3080 C.2   175  PHE175      0.2595
    101  O         33.4830   73.9330   49.0770 O.2   175  PHE175     -0.2718
    102  CB        36.5940   73.9650   47.8530 C.3   175  PHE175      0.0547
    103  CG        36.1600   72.7490   47.0730 C.ar  175  PHE175     -0.0202
    104  CD1       35.5290   71.6780   47.7070 C.ar  175  PHE175     -0.0042
    105  CD2       36.4130   72.6590   45.7040 C.ar  175  PHE175     -0.0042
    106  CE1       35.1620   70.5420   46.9930 C.ar  175  PHE175     -0.0003
    107  CE2       36.0480   71.5210   44.9800 C.ar  175  PHE175     -0.0003
    108  CZ        35.4220   70.4630   45.6260 C.ar  175  PHE175     -0.0000
    109  N         35.1370   74.3460   50.5310 N.am  176  ASN176     -0.1974
    110  CA        34.3960   73.8210   51.6840 C.3   176  ASN176      0.1688
    111  C         33.1040   74.5750   51.9910 C.2   176  ASN176      0.2292
    112  O         32.0910   73.9640   52.3260 O.2   176  ASN176     -0.2864
    113  CB        35.2460   73.8010   52.8760 C.3   176  ASN176      0.1181
    114  CG        36.5330   73.0200   52.6650 C.2   176  ASN176      0.2629
    115  OD1       37.6130   73.4790   53.0370 O.2   176  ASN176     -0.2716
    116  ND2       36.4300   71.8510   52.0430 N.am  176  ASN176     -0.0877
    117  N         44.9490   78.5410   58.2120 N.3   206  HIS206     -0.1241
    118  CA        46.2370   79.0190   57.7250 C.3   206  HIS206      0.1621
    119  C         46.3620   79.3440   56.2400 C.2   206  HIS206      0.2264
    120  O         45.4720   79.0530   55.4360 O.2   206  HIS206     -0.2867
    121  CB        47.2640   77.9900   58.0730 C.3   206  HIS206      0.0745
    122  CG        46.9240   76.6140   57.5770 C.ar  206  HIS206      0.0817
    123  ND1       46.3340   75.6590   58.3770 N.ar  206  HIS206     -0.2268
    124  CD2       47.0700   76.0400   56.3560 C.ar  206  HIS206      0.1154
    125  CE1       46.1290   74.5600   57.6750 C.ar  206  HIS206      0.1986
    126  NE2       46.5670   74.7650   56.4460 N.ar  206  HIS206     -0.2212
    127  N         49.5980   79.1330   53.2620 N.3   208  TYR208     -0.1241
    128  CA        50.9590   78.6910   52.9780 C.3   208  TYR208      0.1605
    129  C         51.8150   79.8940   52.6100 C.2   208  TYR208      0.2264
    130  O         51.3380   80.8460   51.9860 O.2   208  TYR208     -0.2867
    131  CB        50.9660   77.6800   51.9120 C.3   208  TYR208      0.0534
    132  CG        50.6030   76.3110   52.4330 C.ar  208  TYR208     -0.0201
    133  CD1       49.2750   75.9400   52.6200 C.ar  208  TYR208     -0.0009
    134  CD2       51.5900   75.4160   52.8190 C.ar  208  TYR208     -0.0009
    135  CE1       48.9410   74.7020   53.1940 C.ar  208  TYR208      0.0417
    136  CE2       51.2710   74.1860   53.3880 C.ar  208  TYR208      0.0417
    137  CZ        49.9480   73.8320   53.5770 C.ar  208  TYR208      0.1957
    138  OH        49.6430   72.6210   54.1680 O.3   208  TYR208     -0.2866
    139  N         51.4360   74.1670   44.9140 N.3   261  VAL261     -0.1245
    140  CA        51.7360   73.5510   46.1970 C.3   261  VAL261      0.1561
    141  C         53.0800   72.8580   46.0910 C.2   261  VAL261      0.2260
    142  O         53.4810   72.4460   45.0040 O.2   261  VAL261     -0.2867
    143  CB        50.6650   72.4950   46.5980 C.3   261  VAL261      0.0252
    144  CG1       49.3230   73.1610   46.8070 C.3   261  VAL261      0.0019
    145  CG2       50.5530   71.3980   45.5300 C.3   261  VAL261      0.0019
@<TRIPOS>BOND
     1    40    38    1
     2    37    38    2
     3    37    36    1
     4    38    39    1
     5    36    35    1
     6    28    29   ar
     7    28    26   ar
     8    29    27   ar
     9    26    25   ar
    10    35    34    1
    11    34    31    1
    12    27    25   ar
    13    25    24    1
    14    24    21    1
    15    31    30    1
    16    31    32    1
    17    21    20    1
    18    21    22    1
    19    32    33    2
    20    32    41   am
    21    46    45    1
    22    41    42    1
    23    22    23    2
    24    42    45    1
    25    42    43    1
    26    47    48    1
    27    43    44    2
    28    53    51    1
    29    48    51    1
    30    48    49    1
    31    51    52    1
    32    52    54    1
    33    55    56    1
    34    49    50    2
    35    56    59    1
    36    56    57    1
    37   139   140    1
    38   107   108   ar
    39   107   105   ar
    40   142   141    2
    41    59    60    1
    42   145   143    1
    43   108   106   ar
    44   105   103   ar
    45    57    58    2
    46    57    64   am
    47    92    91    1
    48   141   140    1
    49    60    61    1
    50   140   143    1
    51    62    61   ar
    52    64    65    1
    53   143   144    1
    54    61    63   ar
    55   106   104   ar
    56   103   104   ar
    57   103   102    1
    58    91    93    1
    59    91    90    1
    60    66    65    1
    61    66    67    2
    62    65    68    1
    63    89    88    2
    64   102    99    1
    65    99    98    1
    66    99   100    1
    67    90    87    1
    68    87    88    1
    69    87    86    1
    70    70    69   ar
    71    70    72   ar
    72    68    69    1
    73    88    94   am
    74    69    71   ar
    75   101   100    2
    76    72    73   ar
    77   100   109   am
    78    71    73   ar
    79    71    74   ar
    80    73    75   ar
    81    94    95    1
    82    95    96    1
    83    97    96    2
    84   109   110    1
    85    74    76   ar
    86    75    77   ar
    87    85    83   am
    88    76    77   ar
    89   110   111    1
    90   110   113    1
    91    84    83    2
    92   131   132    1
    93   131   128    1
    94   130   129    2
    95    83    82    1
    96   111   112    2
    97   116   114   am
    98   132   133   ar
    99   132   134   ar
   100    81    80    2
   101   129   128    1
   102   133   135   ar
   103   114   113    1
   104   114   115    2
   105   134   136   ar
   106    82    79    1
   107   128   127    1
   108   135   137   ar
   109    18    17    1
   110   136   137   ar
   111    80    79    1
   112   137   138    1
   113    19    17    1
   114    79    78    1
   115    17    16    2
   116     8     6   ar
   117    16    15    1
   118   120   119    2
   119     7     6   ar
   120     6     5    1
   121    15    14    1
   122   119   118    1
   123   124   126   ar
   124   124   122   ar
   125   126   125   ar
   126    11    12    2
   127    11    10    1
   128     5     2    1
   129    14    13    1
   130    13    10    1
   131   122   121    1
   132   122   123   ar
   133   125   123   ar
   134   118   121    1
   135   118   117    1
   136    10     9    1
   137     4     3    2
   138     9     3   am
   139     3     2    1
   140     2     1    1
