@<TRIPOS>MOLECULE
tmp/1bjiA01.pdb
 189 178 0 0 0
SMALL
GASTEIGER

@<TRIPOS>ATOM
      1  N         15.7550   13.2780   63.6140 N.3    37  ARG37      -0.1231
      2  CA        16.4140   14.5890   63.5580 C.3    37  ARG37       0.1694
      3  C         16.9710   14.7760   62.1440 C.2    37  ARG37       0.2591
      4  O         16.9180   13.8520   61.3440 O.2    37  ARG37      -0.2718
      5  CB        17.4670   14.8480   64.6420 C.3    37  ARG37       0.0321
      6  CG        16.9010   15.7610   65.7750 C.3    37  ARG37       0.0489
      7  CD        17.9570   16.7240   66.3380 C.3    37  ARG37       0.2205
      8  NE        18.2570   17.7930   65.3790 N.pl3  37  ARG37      -0.0865
      9  CZ        19.4160   18.4420   65.3050 C.cat  37  ARG37       0.5346
     10  NH1       20.4190   18.1360   66.1350 N.pl3  37  ARG37       0.1354
     11  NH2       19.5700   19.3930   64.3920 N.pl3  37  ARG37       0.1354
     12  N         17.4120   15.9890   61.8190 N.am   38  GLU38      -0.1979
     13  CA        17.9560   16.3050   60.4990 C.3    38  GLU38       0.1602
     14  C         16.9680   15.9660   59.3620 C.2    38  GLU38       0.2287
     15  O         17.3050   15.2300   58.4360 O.2    38  GLU38      -0.2864
     16  CB        19.2800   15.5580   60.2680 C.3    38  GLU38       0.0415
     17  CG        20.4340   15.9370   61.2080 C.3    38  GLU38       0.1163
     18  CD        20.4440   15.1960   62.5530 C.2    38  GLU38       0.3649
     19  OE1       19.9710   14.0250   62.6660 O.co2  38  GLU38      -0.2457
     20  OE2       20.9600   15.7970   63.5180 O.co2  38  GLU38      -0.2457
     21  N         24.5730   12.0820   67.8780 N.3    70  ASP70      -0.1225
     22  CA        24.4940   12.1770   66.4310 C.3    70  ASP70       0.1805
     23  C         24.7630   10.9470   65.5780 C.2    70  ASP70       0.2597
     24  O         24.1170   10.7530   64.5630 O.2    70  ASP70      -0.2718
     25  CB        25.4570   13.2450   65.9450 C.3    70  ASP70       0.1424
     26  CG        25.1420   14.6100   66.4980 C.2    70  ASP70       0.3668
     27  OD1       24.1490   15.2540   66.0580 O.co2  70  ASP70      -0.2456
     28  OD2       25.9210   15.0400   67.3690 O.co2  70  ASP70      -0.2456
     29  N         25.7770   10.1750   65.9450 N.am   71  ARG71      -0.1979
     30  CA        26.1900    9.0480   65.1340 C.3    71  ARG71       0.1597
     31  C         26.1770    7.7090   65.8140 C.2    71  ARG71       0.2287
     32  O         26.8180    7.5400   66.8350 O.2    71  ARG71      -0.2864
     33  CB        27.6100    9.2930   64.6350 C.3    71  ARG71       0.0334
     34  CG        27.7990   10.5020   63.7670 C.3    71  ARG71       0.0492
     35  CD        29.2700   10.7260   63.5370 C.3    71  ARG71       0.2205
     36  NE        29.9140   10.9580   64.8180 N.pl3  71  ARG71      -0.0865
     37  CZ        29.9950   12.1330   65.4210 C.cat  71  ARG71       0.5346
     38  NH1       29.3100   13.1680   65.0020 N.pl3  71  ARG71       0.1354
     39  NH2       30.6470   12.2190   66.5570 N.pl3  71  ARG71       0.1354
     40  N         20.9410    4.4950   63.1260 N.3    75  ARG75      -0.1245
     41  CA        20.3220    5.5670   62.3510 C.3    75  ARG75       0.1563
     42  C         20.1520    5.1510   60.8930 C.2    75  ARG75       0.2260
     43  O         20.8850    4.2930   60.3790 O.2    75  ARG75      -0.2867
     44  CB        21.1720    6.8360   62.4160 C.3    75  ARG75       0.0307
     45  CG        21.4270    7.3520   63.8340 C.3    75  ARG75       0.0489
     46  CD        21.6230    8.8520   63.8150 C.3    75  ARG75       0.2205
     47  NE        20.3530    9.5720   63.7220 N.pl3  75  ARG75      -0.0865
     48  CZ        20.2410   10.9000   63.8340 C.cat  75  ARG75       0.5346
     49  NH1       21.3150   11.6580   63.9900 N.pl3  75  ARG75       0.1354
     50  NH2       19.0570   11.4810   63.7680 N.pl3  75  ARG75       0.1354
     51  N         24.2930    8.0930   59.1970 N.3    98  TRP98      -0.1227
     52  CA        24.0570    9.2090   60.0950 C.3    98  TRP98       0.1737
     53  C         24.2500   10.5950   59.4760 C.2    98  TRP98       0.2596
     54  O         24.3400   11.5800   60.2070 O.2    98  TRP98      -0.2718
     55  CB        24.8630    9.0570   61.3970 C.3    98  TRP98       0.0564
     56  CG        26.2980    8.5480   61.2300 C.ar   98  TRP98       0.0003
     57  CD1       26.7890    7.3270   61.6290 C.ar   98  TRP98       0.0946
     58  CD2       27.3990    9.2440   60.6300 C.ar   98  TRP98       0.0152
     59  NE1       28.1230    7.2260   61.3180 N.ar   98  TRP98      -0.2442
     60  CE2       28.5300    8.3860   60.7000 C.ar   98  TRP98       0.0810
     61  CE3       27.5440   10.5100   60.0330 C.ar   98  TRP98       0.0012
     62  CZ2       29.7850    8.7400   60.1900 C.ar   98  TRP98       0.0191
     63  CZ3       28.7820   10.8690   59.5240 C.ar   98  TRP98       0.0001
     64  CH2       29.8960    9.9840   59.6090 C.ar   98  TRP98       0.0015
     65  N         24.2900   10.6580   58.1360 N.am   99  SER99      -0.1952
     66  CA        24.3980   11.9120   57.3780 C.3    99  SER99       0.1924
     67  C         23.8620   11.5470   55.9990 C.2    99  SER99       0.2314
     68  O         24.1460   10.4570   55.5030 O.2    99  SER99      -0.2863
     69  CB        25.8440   12.3960   57.2760 C.3    99  SER99       0.2116
     70  OG        25.9000   13.6410   56.5850 O.3    99  SER99      -0.2180
     71  N         38.0030   12.3690   59.3260 N.3   141  ASN141     -0.1225
     72  CA        37.3500   13.0640   60.4210 C.3   141  ASN141      0.1785
     73  C         35.9280   13.4390   60.0400 C.2   141  ASN141      0.2597
     74  O         35.6660   14.4750   59.3950 O.2   141  ASN141     -0.2718
     75  CB        38.1640   14.2910   60.8630 C.3   141  ASN141      0.1169
     76  CG        37.6650   14.8970   62.1780 C.2   141  ASN141      0.2627
     77  OD1       37.6800   16.1160   62.3480 O.2   141  ASN141     -0.2716
     78  ND2       37.2580   14.0610   63.1140 N.am  141  ASN141     -0.0877
     79  N         35.0640   12.4590   60.3010 N.am  142  ILE142     -0.1980
     80  CA        33.6270   12.5300   60.0660 C.3   142  ILE142      0.1595
     81  C         33.1580   13.0230   58.6800 C.2   142  ILE142      0.2287
     82  O         32.6550   14.1350   58.5340 O.2   142  ILE142     -0.2864
     83  CB        32.9380   13.3130   61.2240 C.3   142  ILE142      0.0276
     84  CG1       33.3490   12.6840   62.5720 C.3   142  ILE142      0.0022
     85  CG2       31.4260   13.2460   61.0930 C.3   142  ILE142      0.0022
     86  CD1       32.8800   13.4170   63.8210 C.3   142  ILE142      0.0001
     87  N         30.9290   13.9270   55.9610 N.3   144  ARG144     -0.1245
     88  CA        29.5410   14.3260   56.1330 C.3   144  ARG144      0.1563
     89  C         28.9780   15.0670   54.9170 C.2   144  ARG144      0.2260
     90  O         29.7280   15.4800   54.0470 O.2   144  ARG144     -0.2867
     91  CB        29.4260   15.1850   57.3870 C.3   144  ARG144      0.0307
     92  CG        30.4760   16.3070   57.4530 C.3   144  ARG144      0.0489
     93  CD        30.6740   16.7760   58.8800 C.3   144  ARG144      0.2205
     94  NE        31.5390   17.9450   58.9950 N.pl3 144  ARG144     -0.0865
     95  CZ        32.8510   17.8820   59.1970 C.cat 144  ARG144      0.5346
     96  NH1       33.4540   16.6980   59.3000 N.pl3 144  ARG144      0.1354
     97  NH2       33.5570   19.0040   59.3020 N.pl3 144  ARG144      0.1354
     98  N         22.3450   17.0520   54.4470 N.3   147  GLU147     -0.1245
     99  CA        21.2310   16.9140   55.3730 C.3   147  GLU147      0.1567
    100  C         19.9770   17.5640   54.7640 C.2   147  GLU147      0.2260
    101  O         19.0650   17.9570   55.4870 O.2   147  GLU147     -0.2867
    102  CB        21.5060   17.4820   56.7760 C.3   147  GLU147      0.0388
    103  CG        22.8560   17.1730   57.4020 C.3   147  GLU147      0.1160
    104  CD        23.1560   15.6930   57.5380 C.2   147  GLU147      0.3649
    105  OE1       22.3690   14.8260   57.1040 O.co2 147  GLU147     -0.2457
    106  OE2       24.2210   15.3730   58.0980 O.co2 147  GLU147     -0.2457
    107  N         36.8570   16.4210   57.6560 N.3   164  GLY164     -0.1210
    108  CA        37.8480   17.0960   58.4710 C.3   164  GLY164      0.1956
    109  C         37.2270   17.8360   59.6500 C.2   164  GLY164      0.2613
    110  O         36.0950   17.5890   60.0520 O.2   164  GLY164     -0.2717
    111  N         37.9990   18.7600   60.2040 N.am  165  SER165     -0.1938
    112  CA        37.5890   19.5630   61.3440 C.3   165  SER165      0.2055
    113  C         36.3040   20.3780   61.1710 C.2   165  SER165      0.2642
    114  O         36.0880   21.0690   60.1690 O.2   165  SER165     -0.2714
    115  CB        38.7380   20.5220   61.7300 C.3   165  SER165      0.2130
    116  OG        38.4050   21.3670   62.8330 O.3   165  SER165     -0.2179
    117  N         35.5130   20.3810   62.2250 N.am  166  ALA166     -0.1977
    118  CA        34.2840   21.1460   62.2550 C.3   166  ALA166      0.1597
    119  C         34.6150   22.5590   62.7420 C.2   166  ALA166      0.2287
    120  O         33.7870   23.4720   62.6860 O.2   166  ALA166     -0.2864
    121  CB        33.3360   20.5050   63.2260 C.3   166  ALA166      0.0319
    122  N         29.5600   23.5990   55.6080 N.3   196  GLU196     -0.1231
    123  CA        28.8950   22.4950   56.2780 C.3   196  GLU196      0.1699
    124  C         27.4360   22.5330   55.8550 C.2   196  GLU196      0.2592
    125  O         26.9300   23.6040   55.5240 O.2   196  GLU196     -0.2718
    126  CB        28.9090   22.6640   57.8020 C.3   196  GLU196      0.0402
    127  CG        30.2630   22.7300   58.4810 C.3   196  GLU196      0.1161
    128  CD        30.9470   21.3840   58.6540 C.2   196  GLU196      0.3649
    129  OE1       30.4640   20.3640   58.1230 O.co2 196  GLU196     -0.2457
    130  OE2       31.9600   21.3310   59.3720 O.co2 196  GLU196     -0.2457
    131  N         26.8050   21.3610   55.7690 N.am  197  GLU197     -0.1979
    132  CA        25.3660   21.2260   55.5000 C.3   197  GLU197      0.1602
    133  C         24.7530   22.1980   54.5110 C.2   197  GLU197      0.2287
    134  O         23.9020   23.0080   54.8690 O.2   197  GLU197     -0.2864
    135  CB        24.6270   21.3150   56.8600 C.3   197  GLU197      0.0415
    136  CG        25.2740   20.4190   57.9140 C.3   197  GLU197      0.1163
    137  CD        24.7830   20.6630   59.3210 C.2   197  GLU197      0.3649
    138  OE1       24.5430   21.8150   59.6940 O.co2 197  GLU197     -0.2457
    139  OE2       24.6770   19.6970   60.0860 O.co2 197  GLU197     -0.2457
    140  N         26.7540   26.4830   55.8630 N.3   212  ARG212     -0.1245
    141  CA        27.0400   26.8800   57.2190 C.3   212  ARG212      0.1563
    142  C         28.5330   26.8630   57.5170 C.2   212  ARG212      0.2260
    143  O         29.1990   25.8320   57.3730 O.2   212  ARG212     -0.2867
    144  CB        26.2980   25.9340   58.1790 C.3   212  ARG212      0.0307
    145  CG        26.8320   25.8630   59.5970 C.3   212  ARG212      0.0489
    146  CD        26.2550   24.6370   60.2700 C.3   212  ARG212      0.2205
    147  NE        26.7820   24.3540   61.5910 N.pl3 212  ARG212     -0.0865
    148  CZ        26.2110   23.5030   62.4480 C.cat 212  ARG212      0.5346
    149  NH1       25.0990   22.8470   62.1230 N.pl3 212  ARG212      0.1354
    150  NH2       26.7620   23.2860   63.6360 N.pl3 212  ARG212      0.1354
    151  N         30.7640   26.7100   60.1700 N.3   214  ASN214     -0.1240
    152  CA        30.7390   26.3940   61.5720 C.3   214  ASN214      0.1653
    153  C         31.9080   26.9690   62.3460 C.2   214  ASN214      0.2266
    154  O         31.8520   27.0840   63.5650 O.2   214  ASN214     -0.2867
    155  CB        30.7250   24.8910   61.7760 C.3   214  ASN214      0.1155
    156  CG        30.3160   24.5210   63.1680 C.2   214  ASN214      0.2627
    157  OD1       31.1210   24.0320   63.9750 O.2   214  ASN214     -0.2716
    158  ND2       29.0630   24.7870   63.4870 N.am  214  ASN214     -0.0877
    159  N         30.3210   27.0890   65.9350 N.3   266  ASN266     -0.1240
    160  CA        28.9420   26.7330   66.1150 C.3   266  ASN266      0.1653
    161  C         28.1250   27.3110   64.9820 C.2   266  ASN266      0.2266
    162  O         28.6120   28.1450   64.1910 O.2   266  ASN266     -0.2867
    163  CB        28.4290   27.2450   67.4420 C.3   266  ASN266      0.1155
    164  CG        27.3470   26.3560   68.0140 C.2   266  ASN266      0.2627
    165  OD1       26.9010   25.3860   67.3700 O.2   266  ASN266     -0.2716
    166  ND2       26.8890   26.6910   69.2270 N.am  266  ASN266     -0.0877
    167  N         18.4360   28.1910   69.1610 N.3   290  ARG290     -0.1245
    168  CA        17.6260   27.7680   68.0080 C.3   290  ARG290      0.1563
    169  C         16.2060   27.9400   68.4770 C.2   290  ARG290      0.2260
    170  O         15.5100   26.9900   68.8180 O.2   290  ARG290     -0.2867
    171  CB        17.9130   26.3050   67.6980 C.3   290  ARG290      0.0307
    172  CG        19.3610   26.0680   67.3320 C.3   290  ARG290      0.0489
    173  CD        19.6880   24.6100   67.1820 C.3   290  ARG290      0.2205
    174  NE        21.0110   24.4940   66.5700 N.pl3 290  ARG290     -0.0865
    175  CZ        21.6250   23.3410   66.3130 C.cat 290  ARG290      0.5346
    176  NH1       21.0490   22.1860   66.6240 N.pl3 290  ARG290      0.1354
    177  NH2       22.8150   23.3560   65.7490 N.pl3 290  ARG290      0.1354
    178  N         17.1480   23.0540   62.4390 N.3   324  TYR324     -0.1241
    179  CA        17.5740   23.0810   61.0490 C.3   324  TYR324      0.1605
    180  C         16.4790   23.5720   60.0900 C.2   324  TYR324      0.2264
    181  O         15.2880   23.5800   60.4150 O.2   324  TYR324     -0.2867
    182  CB        18.0600   21.6830   60.6400 C.3   324  TYR324      0.0534
    183  CG        19.4550   21.3250   61.1400 C.ar  324  TYR324     -0.0201
    184  CD1       20.0760   22.0590   62.1620 C.ar  324  TYR324     -0.0009
    185  CD2       20.1850   20.2770   60.5510 C.ar  324  TYR324     -0.0009
    186  CE1       21.4070   21.7610   62.5840 C.ar  324  TYR324      0.0417
    187  CE2       21.5120   19.9700   60.9560 C.ar  324  TYR324      0.0417
    188  CZ        22.1090   20.7250   61.9710 C.ar  324  TYR324      0.1957
    189  OH        23.4120   20.4600   62.3220 O.3   324  TYR324     -0.2866
@<TRIPOS>BOND
     1    90    89    2
     2    98    99    1
     3   133   134    2
     4   133   132    1
     5   100    99    1
     6   100   101    2
     7    89    88    1
     8    99   102    1
     9   132   131    1
    10   132   135    1
    11    68    67    2
    12   125   124    2
    13   122   123    1
    14   131   124   am
    15   124   123    1
    16   140   141    1
    17    87    88    1
    18    67    66    1
    19    88    91    1
    20   123   126    1
    21    70    69    1
    22   102   103    1
    23   135   136    1
    24   105   104   ar
    25   141   142    1
    26   141   144    1
    27    69    66    1
    28   143   142    2
    29    66    65    1
    30    91    92    1
    31   103   104    1
    32    92    93    1
    33   104   106   ar
    34   107   108    1
    35   126   127    1
    36   136   137    1
    37   129   128   ar
    38    65    53   am
    39   144   145    1
    40    15    14    2
    41   108   109    1
    42   127   128    1
    43    82    81    2
    44   128   130   ar
    45    81    80    1
    46    93    94    1
    47    94    95    2
    48    95    96    1
    49    95    97    1
    50    51    52    1
    51   137   138   ar
    52   137   139   ar
    53    71    72    1
    54    14    13    1
    55    74    73    2
    56    53    52    1
    57    53    54    2
    58    63    64   ar
    59    63    61   ar
    60   145   146    1
    61    64    62   ar
    62   109   110    2
    63   109   111   am
    64    61    58   ar
    65    73    79   am
    66    73    72    1
    67    80    79    1
    68    80    83    1
    69   180   181    2
    70   180   179    1
    71    52    55    1
    72   114   113    2
    73   151   152    1
    74    62    60   ar
    75   111   112    1
    76    16    13    1
    77    16    17    1
    78   146   147    1
    79    43    42    2
    80    72    75    1
    81    13    12    1
    82   185   187   ar
    83   185   183   ar
    84    58    60   ar
    85    58    56   ar
    86   182   179    1
    87   182   183    1
    88    60    59   ar
    89    75    76    1
    90    42    41    1
    91   187   188   ar
    92   179   178    1
    93    85    83    1
    94   183   184   ar
    95   113   112    1
    96   113   117   am
    97    17    18    1
    98    83    84    1
    99    56    55    1
   100    56    57   ar
   101    59    57   ar
   102     4     3    2
   103   112   115    1
   104   152   155    1
   105   152   153    1
   106   147   148    2
   107   115   116    1
   108   155   156    1
   109    12     3   am
   110   188   189    1
   111   188   186   ar
   112   149   148    1
   113     3     2    1
   114   184   186   ar
   115    76    77    2
   116    76    78   am
   117   117   118    1
   118   118   119    1
   119   118   121    1
   120   153   154    2
   121    41    44    1
   122    41    40    1
   123    44    45    1
   124   148   150    1
   125    18    19   ar
   126    18    20   ar
   127    84    86    1
   128   120   119    2
   129   156   158   am
   130   156   157    2
   131    35    34    1
   132    35    36    1
   133     2     1    1
   134     2     5    1
   135    47    46    1
   136    47    48    2
   137    34    33    1
   138    50    48    1
   139    46    45    1
   140    48    49    1
   141   162   161    2
   142    11     9    1
   143    24    23    2
   144    33    30    1
   145     5     6    1
   146    36    37    2
   147   161   160    1
   148    38    37    1
   149    30    31    1
   150    30    29    1
   151     9     8    2
   152     9    10    1
   153     8     7    1
   154    37    39    1
   155    23    29   am
   156    23    22    1
   157   177   175    1
   158     6     7    1
   159    31    32    2
   160   159   160    1
   161    25    22    1
   162    25    26    1
   163    27    26   ar
   164   160   163    1
   165   175   174    2
   166   175   176    1
   167    22    21    1
   168    26    28   ar
   169   174   173    1
   170   173   172    1
   171   172   171    1
   172   165   164    2
   173   163   164    1
   174   171   168    1
   175   168   169    1
   176   168   167    1
   177   164   166   am
   178   169   170    2
