@<TRIPOS>MOLECULE
tmp/1bjoA00.pdb
 173 165 0 0 0
SMALL
GASTEIGER

@<TRIPOS>ATOM
      1  N         30.0110   60.4960   38.0600 N.3     7  SER7       -0.1202
      2  CA        29.3580   61.7890   38.1870 C.3     7  SER7        0.2020
      3  C         28.3110   61.9200   39.2910 C.2     7  SER7        0.2619
      4  O         27.7320   62.9930   39.4680 O.2     7  SER7       -0.2717
      5  CB        28.7280   62.1700   36.8500 C.3     7  SER7        0.2103
      6  OG        27.7970   61.1870   36.4340 O.3     7  SER7       -0.2182
      7  N         28.0370   60.8340   40.0040 N.am    8  GLY8       -0.1956
      8  CA        27.0460   60.8990   41.0590 C.3     8  GLY8        0.1869
      9  C         26.2510   59.6140   41.1870 C.2     8  GLY8        0.2309
     10  O         25.4840   59.3000   40.2730 O.2     8  GLY8       -0.2863
     11  N         14.8760   63.1090   49.4370 N.3    72  GLY72      -0.1210
     12  CA        14.4020   63.3380   48.0840 C.3    72  GLY72       0.1956
     13  C         15.3610   63.6470   46.9560 C.2    72  GLY72       0.2612
     14  O         14.9940   63.4820   45.7970 O.2    72  GLY72      -0.2717
     15  N         16.5660   64.1050   47.2760 N.am   73  GLY73      -0.1942
     16  CA        17.5220   64.4480   46.2410 C.3    73  GLY73       0.2014
     17  C         17.0940   65.6770   45.4550 C.2    73  GLY73       0.2639
     18  O         16.0940   66.3240   45.7750 O.2    73  GLY73      -0.2714
     19  N         17.8510   65.9870   44.4060 N.am   74  GLY74      -0.1939
     20  CA        17.5480   67.1320   43.5630 C.3    74  GLY74       0.2014
     21  C         16.1730   67.1170   42.9110 C.2    74  GLY74       0.2638
     22  O         15.5360   68.1560   42.8430 O.2    74  GLY74      -0.2714
     23  N         15.7030   65.9510   42.4580 N.am   75  ARG75      -0.1977
     24  CA        14.3950   65.8320   41.8110 C.3    75  ARG75       0.1597
     25  C         13.2170   65.9590   42.7620 C.2    75  ARG75       0.2287
     26  O         12.0620   66.0080   42.3430 O.2    75  ARG75      -0.2864
     27  CB        14.2890   64.5310   41.0200 C.3    75  ARG75       0.0334
     28  CG        15.2860   64.4160   39.8940 C.3    75  ARG75       0.0492
     29  CD        15.0570   63.1630   39.0440 C.3    75  ARG75       0.2205
     30  NE        14.1250   63.3780   37.9270 N.pl3  75  ARG75      -0.0865
     31  CZ        14.4450   63.2270   36.6370 C.cat  75  ARG75       0.5346
     32  NH1       15.6740   62.8630   36.2830 N.pl3  75  ARG75       0.1354
     33  NH2       13.5290   63.4170   35.6940 N.pl3  75  ARG75       0.1354
     34  N         12.5660   69.6500   42.5330 N.3    78  PHE78      -0.1241
     35  CA        11.9140   70.1590   41.3260 C.3    78  PHE78       0.1605
     36  C         10.4500   70.3390   41.6550 C.2    78  PHE78       0.2264
     37  O          9.7460   71.1190   41.0130 O.2    78  PHE78      -0.2867
     38  CB        12.0450   69.1710   40.1680 C.3    78  PHE78       0.0534
     39  CG        13.4290   69.0660   39.6070 C.ar   78  PHE78      -0.0203
     40  CD1       14.3990   70.0020   39.9180 C.ar   78  PHE78      -0.0042
     41  CD2       13.7640   68.0220   38.7680 C.ar   78  PHE78      -0.0042
     42  CE1       15.6730   69.8940   39.4020 C.ar   78  PHE78      -0.0003
     43  CE2       15.0350   67.9110   38.2530 C.ar   78  PHE78      -0.0003
     44  CZ        15.9890   68.8470   38.5710 C.ar   78  PHE78      -0.0000
     45  N         19.8550   69.6340   30.1790 N.3    99  TYR99      -0.1227
     46  CA        19.0170   68.5070   30.5920 C.3    99  TYR99       0.1736
     47  C         18.3140   68.6920   31.9440 C.2    99  TYR99       0.2595
     48  O         17.1190   68.4030   32.0870 O.2    99  TYR99      -0.2718
     49  CB        19.8620   67.2310   30.6080 C.3    99  TYR99       0.0548
     50  CG        19.0900   66.0020   31.0190 C.ar   99  TYR99      -0.0200
     51  CD1       19.0000   65.6390   32.3560 C.ar   99  TYR99      -0.0009
     52  CD2       18.4320   65.2140   30.0700 C.ar   99  TYR99      -0.0009
     53  CE1       18.2800   64.5290   32.7440 C.ar   99  TYR99       0.0417
     54  CE2       17.7020   64.0920   30.4450 C.ar   99  TYR99       0.0417
     55  CZ        17.6310   63.7550   31.7880 C.ar   99  TYR99       0.1957
     56  OH        16.9210   62.6510   32.1940 O.3    99  TYR99      -0.2866
     57  N         19.0770   69.1390   32.9360 N.am  100  TRP100     -0.1976
     58  CA        18.5450   69.3670   34.2680 C.3   100  TRP100      0.1640
     59  C         17.6510   70.5810   34.3430 C.2   100  TRP100      0.2290
     60  O         16.6380   70.5590   35.0400 O.2   100  TRP100     -0.2864
     61  CB        19.6780   69.4450   35.2840 C.3   100  TRP100      0.0576
     62  CG        20.2960   68.1180   35.4540 C.ar  100  TRP100      0.0006
     63  CD1       21.5880   67.7600   35.1890 C.ar  100  TRP100      0.0946
     64  CD2       19.6180   66.9260   35.8490 C.ar  100  TRP100      0.0152
     65  NE1       21.7560   66.4060   35.3860 N.ar  100  TRP100     -0.2442
     66  CE2       20.5620   65.8710   35.7920 C.ar  100  TRP100      0.0810
     67  CE3       18.3030   66.6440   36.2460 C.ar  100  TRP100      0.0012
     68  CZ2       20.2290   64.5620   36.1180 C.ar  100  TRP100      0.0191
     69  CZ3       17.9730   65.3420   36.5710 C.ar  100  TRP100      0.0001
     70  CH2       18.9340   64.3140   36.5060 C.ar  100  TRP100      0.0015
     71  N         19.6020   76.4080   36.2360 N.3   147  CYS147     -0.1235
     72  CA        20.6130   75.4870   36.7340 C.3   147  CYS147      0.1677
     73  C         22.0010   75.9430   36.2800 C.2   147  CYS147      0.2270
     74  O         22.3560   75.8060   35.1140 O.2   147  CYS147     -0.2867
     75  CB        20.3070   74.0570   36.2570 C.3   147  CYS147      0.0956
     76  SG        21.6710   72.8840   36.4130 S.3   147  CYS147     -0.0801
     77  N         24.8270   74.6830   36.5610 N.3   149  ASN149     -0.1240
     78  CA        25.7520   73.6480   36.1280 C.3   149  ASN149      0.1653
     79  C         25.0770   72.3730   35.6470 C.2   149  ASN149      0.2266
     80  O         24.5900   71.5770   36.4450 O.2   149  ASN149     -0.2867
     81  CB        26.7470   73.3240   37.2320 C.3   149  ASN149      0.1155
     82  CG        27.9610   72.5980   36.7170 C.2   149  ASN149      0.2627
     83  OD1       28.9780   73.2120   36.4340 O.2   149  ASN149     -0.2716
     84  ND2       27.8590   71.2830   36.5840 N.am  149  ASN149     -0.0877
     85  N         25.2140   68.8970   34.5250 N.3   151  THR151     -0.1203
     86  CA        26.0980   67.7500   34.7200 C.3   151  THR151      0.1994
     87  C         26.3440   66.8540   33.4990 C.2   151  THR151      0.2617
     88  O         27.4330   66.3020   33.3170 O.2   151  THR151     -0.2717
     89  CB        25.5580   66.8940   35.8810 C.3   151  THR151      0.1784
     90  OG1       25.0040   67.7590   36.8710 O.3   151  THR151     -0.2211
     91  CG2       26.6710   66.0930   36.5350 C.3   151  THR151      0.0376
     92  N         25.3130   66.7000   32.6800 N.am  152  ILE152     -0.1979
     93  CA        25.3860   65.8590   31.5000 C.3   152  ILE152      0.1595
     94  C         25.9470   66.6140   30.2970 C.2   152  ILE152      0.2287
     95  O         26.7860   66.0940   29.5560 O.2   152  ILE152     -0.2864
     96  CB        23.9860   65.2830   31.1860 C.3   152  ILE152      0.0276
     97  CG1       23.5350   64.3800   32.3260 C.3   152  ILE152      0.0022
     98  CG2       23.9960   64.4930   29.8990 C.3   152  ILE152      0.0022
     99  CD1       22.1650   63.8080   32.1350 C.3   152  ILE152      0.0001
    100  N         19.6770   75.3640   40.8610 N.3   172  ASP172     -0.1239
    101  CA        20.0460   73.9750   41.0870 C.3   172  ASP172      0.1674
    102  C         21.5660   73.8270   41.0590 C.2   172  ASP172      0.2266
    103  O         22.1560   73.5730   40.0050 O.2   172  ASP172     -0.2867
    104  CB        19.3880   73.1450   39.9820 C.3   172  ASP172      0.1410
    105  CG        19.6210   71.6630   40.1120 C.2   172  ASP172      0.3668
    106  OD1       20.4220   71.2170   40.9570 O.co2 172  ASP172     -0.2456
    107  OD2       18.9830   70.9330   39.3240 O.co2 172  ASP172     -0.2456
    108  N         23.3240   71.4200   42.3720 N.3   174  SER174     -0.1202
    109  CA        23.6920   70.0490   42.7110 C.3   174  SER174      0.2020
    110  C         25.1090   69.5950   42.3860 C.2   174  SER174      0.2619
    111  O         25.7700   68.9740   43.2220 O.2   174  SER174     -0.2717
    112  CB        22.6980   69.0690   42.1090 C.3   174  SER174      0.2103
    113  OG        21.4000   69.3800   42.5460 O.3   174  SER174     -0.2182
    114  N         25.5760   69.9290   41.1850 N.am  175  SER175     -0.1951
    115  CA        26.8980   69.5210   40.7130 C.3   175  SER175      0.1924
    116  C         27.9870   70.5850   40.6940 C.2   175  SER175      0.2314
    117  O         29.0310   70.3830   40.0920 O.2   175  SER175     -0.2863
    118  CB        26.7760   68.8950   39.3220 C.3   175  SER175      0.2116
    119  OG        26.0840   69.7700   38.4450 O.3   175  SER175     -0.2180
    120  N         21.7370   68.3080   45.6860 N.3   193  GLY193     -0.1225
    121  CA        21.8570   66.9510   46.1840 C.3   193  GLY193      0.1811
    122  C         23.3200   66.7620   46.5690 C.2   193  GLY193      0.2280
    123  O         24.2300   67.2480   45.8850 O.2   193  GLY193     -0.2866
    124  N         25.2430   63.9170   46.7250 N.3   195  GLN195     -0.1231
    125  CA        26.0080   62.8940   46.0110 C.3   195  GLN195      0.1698
    126  C         27.0340   63.3300   44.9550 C.2   195  GLN195      0.2592
    127  O         27.8610   62.5280   44.5410 O.2   195  GLN195     -0.2718
    128  CB        25.0770   61.8170   45.4370 C.3   195  GLN195      0.0381
    129  CG        24.1570   62.2510   44.3020 C.3   195  GLN195      0.0905
    130  CD        22.8970   62.9900   44.7590 C.2   195  GLN195      0.2608
    131  OE1       22.5880   63.0760   45.9560 O.2   195  GLN195     -0.2717
    132  NE2       22.1500   63.5120   43.7890 N.am  195  GLN195     -0.0878
    133  N         27.0040   64.5910   44.5430 N.am  196  LYS196     -0.1980
    134  CA        27.9370   65.0980   43.5460 C.3   196  LYS196      0.1596
    135  C         29.1870   65.6900   44.1580 C.2   196  LYS196      0.2287
    136  O         30.2470   65.0650   44.1460 O.2   196  LYS196     -0.2864
    137  CB        27.2890   66.1750   42.6830 C.3   196  LYS196      0.0298
    138  CG        26.3030   65.6920   41.6690 C.3   196  LYS196      0.0038
    139  CD        25.1330   65.0050   42.3230 C.3   196  LYS196      0.0206
    140  CE        23.8860   65.0720   41.4610 C.3   196  LYS196      0.1093
    141  NZ        24.2020   64.9450   40.0070 N.3   196  LYS196     -0.1314
    142  N         27.1730   60.1120   29.3380 N.3   326  HIS326     -0.1226
    143  CA        25.7960   59.7920   29.6450 C.3   326  HIS326      0.1752
    144  C         25.1160   59.1790   28.4460 C.2   326  HIS326      0.2595
    145  O         25.4790   59.4420   27.3000 O.2   326  HIS326     -0.2718
    146  CB        25.0190   61.0180   30.0910 C.3   326  HIS326      0.0759
    147  CG        23.7350   60.6830   30.7790 C.ar  326  HIS326      0.0818
    148  ND1       22.5200   60.7480   30.1190 N.ar  326  HIS326     -0.2268
    149  CD2       23.5330   60.3180   32.0740 C.ar  326  HIS326      0.1154
    150  CE1       21.6080   60.4310   31.0250 C.ar  326  HIS326      0.1986
    151  NE2       22.1720   60.1610   32.2300 N.ar  326  HIS326     -0.2212
    152  N         24.1130   58.3620   28.7450 N.am  327  ARG327     -0.1980
    153  CA        23.3320   57.6590   27.7450 C.3   327  ARG327      0.1597
    154  C         22.7970   58.6240   26.6850 C.2   327  ARG327      0.2287
    155  O         23.0370   58.4280   25.4820 O.2   327  ARG327     -0.2864
    156  CB        22.1680   56.9680   28.4410 C.3   327  ARG327      0.0334
    157  CG        21.6520   55.6900   27.7640 C.3   327  ARG327      0.0492
    158  CD        20.4460   55.1480   28.5590 C.3   327  ARG327      0.2205
    159  NE        20.5580   55.5250   29.9800 N.pl3 327  ARG327     -0.0865
    160  CZ        19.5270   55.7340   30.8110 C.cat 327  ARG327      0.5346
    161  NH1       18.2660   55.5930   30.3720 N.pl3 327  ARG327      0.1354
    162  NH2       19.7560   56.1110   32.0830 N.pl3 327  ARG327      0.1354
    163  N         32.8890   61.2390   29.6550 N.3   333  ARG333     -0.1245
    164  CA        32.6630   62.3010   30.6240 C.3   333  ARG333      0.1563
    165  C         33.4790   62.0850   31.8870 C.2   333  ARG333      0.2260
    166  O         33.3570   61.0630   32.5690 O.2   333  ARG333     -0.2867
    167  CB        31.1840   62.4310   30.9850 C.3   333  ARG333      0.0307
    168  CG        30.9080   63.5190   32.0240 C.3   333  ARG333      0.0489
    169  CD        29.4350   63.6110   32.3950 C.3   333  ARG333      0.2205
    170  NE        28.8770   62.3070   32.7290 N.pl3 333  ARG333     -0.0865
    171  CZ        27.6880   62.1260   33.2830 C.cat 333  ARG333      0.5346
    172  NH1       26.9230   63.1700   33.5810 N.pl3 333  ARG333      0.1354
    173  NH2       27.2550   60.8930   33.5120 N.pl3 333  ARG333      0.1354
@<TRIPOS>BOND
     1   155   154    2
     2   154   153    1
     3   145   144    2
     4   153   156    1
     5   153   152    1
     6   157   156    1
     7   157   158    1
     8   144   152   am
     9   144   143    1
    10   158   159    1
    11   142   143    1
    12    95    94    2
    13   143   146    1
    14   163   164    1
    15    98    96    1
    16   159   160    2
    17    52    54   ar
    18    52    50   ar
    19   146   147    1
    20   148   147   ar
    21   148   150   ar
    22    45    46    1
    23    94    93    1
    24   161   160    1
    25    54    55   ar
    26    46    49    1
    27    46    47    1
    28    49    50    1
    29   164   167    1
    30   164   165    1
    31   147   149   ar
    32   160   162    1
    33   167   168    1
    34    50    51   ar
    35   150   151   ar
    36    96    93    1
    37    96    97    1
    38    93    92    1
    39    55    56    1
    40    55    53   ar
    41   165   166    2
    42    47    48    2
    43    47    57   am
    44   168   169    1
    45   149   151   ar
    46    99    97    1
    47    51    53   ar
    48   169   170    1
    49    92    87   am
    50   170   171    2
    51    57    58    1
    52   171   173    1
    53   171   172    1
    54    88    87    2
    55    87    86    1
    56    58    59    1
    57    58    61    1
    58    59    60    2
    59    85    86    1
    60    86    89    1
    61    74    73    2
    62    63    65   ar
    63    63    62   ar
    64    61    62    1
    65    65    66   ar
    66    62    64   ar
    67    79    78    1
    68    79    80    2
    69    33    31    1
    70    66    64   ar
    71    66    68   ar
    72    64    67   ar
    73    89    91    1
    74    89    90    1
    75    68    70   ar
    76    78    77    1
    77    78    81    1
    78    71    72    1
    79    67    69   ar
    80    75    76    1
    81    75    72    1
    82    73    72    1
    83    32    31    1
    84    83    82    2
    85     6     5    1
    86    70    69   ar
    87    84    82   am
    88    31    30    2
    89    82    81    1
    90     5     2    1
    91    30    29    1
    92     1     2    1
    93     2     3    1
    94    43    44   ar
    95    43    41   ar
    96   119   118    1
    97    44    42   ar
    98    41    39   ar
    99    29    28    1
   100     3     4    2
   101     3     7   am
   102   118   115    1
   103   107   105   ar
   104    42    40   ar
   105    39    40   ar
   106    39    38    1
   107    28    27    1
   108   104   105    1
   109   104   101    1
   110     7     8    1
   111   103   102    2
   112   141   140    1
   113   117   116    2
   114   105   106   ar
   115    38    35    1
   116    10     9    2
   117   116   115    1
   118   115   114    1
   119   100   101    1
   120    37    36    2
   121    27    24    1
   122   102   101    1
   123     8     9    1
   124   114   110   am
   125    35    36    1
   126    35    34    1
   127   140   139    1
   128   138   139    1
   129   138   137    1
   130    24    23    1
   131    24    25    1
   132   112   113    1
   133   112   109    1
   134    26    25    2
   135   108   109    1
   136   110   109    1
   137   110   111    2
   138    23    21   am
   139   137   134    1
   140    22    21    2
   141    21    20    1
   142   134   135    1
   143   134   133    1
   144    20    19    1
   145   132   130   am
   146   136   135    2
   147   129   130    1
   148   129   128    1
   149    19    17   am
   150   127   126    2
   151   133   126   am
   152   130   131    2
   153   126   125    1
   154   128   125    1
   155    17    18    2
   156    17    16    1
   157   120   121    1
   158    14    13    2
   159   123   122    2
   160   125   124    1
   161   121   122    1
   162    16    15    1
   163    13    15   am
   164    13    12    1
   165    12    11    1
