@<TRIPOS>MOLECULE
tmp/1bjuA00.pdb
 150 148 0 0 0
SMALL
GASTEIGER

@<TRIPOS>ATOM
      1  N          7.2140   16.8580   25.2360 N.3    40  HIS40      -0.1241
      2  CA         6.2720   17.9650   25.2800 C.3    40  HIS40       0.1621
      3  C          5.1770   17.7510   26.3210 C.2    40  HIS40       0.2264
      4  O          4.3590   18.6460   26.5160 O.2    40  HIS40      -0.2867
      5  CB         5.6200   18.2230   23.9080 C.3    40  HIS40       0.0745
      6  CG         4.4630   17.3760   23.3780 C.ar   40  HIS40       0.0817
      7  ND1        4.4970   16.4320   22.4290 N.ar   40  HIS40      -0.2268
      8  CD2        3.1360   17.5240   23.7340 C.ar   40  HIS40       0.1154
      9  CE1        3.2700   16.0090   22.1950 C.ar   40  HIS40       0.1986
     10  NE2        2.4680   16.6800   22.9910 N.ar   40  HIS40      -0.2212
     11  N         16.0330   17.4700   23.1500 N.3    76  TYR76      -0.1241
     12  CA        14.6770   17.8030   22.7860 C.3    76  TYR76       0.1605
     13  C         14.6260   19.2420   22.2870 C.2    76  TYR76       0.2264
     14  O         15.1380   20.1460   22.9630 O.2    76  TYR76      -0.2867
     15  CB        13.7400   17.6540   23.9950 C.3    76  TYR76       0.0534
     16  CG        12.3350   18.2020   23.7430 C.ar   76  TYR76      -0.0201
     17  CD1       11.5720   17.7320   22.6520 C.ar   76  TYR76      -0.0009
     18  CD2       11.8020   19.1590   24.5980 C.ar   76  TYR76      -0.0009
     19  CE1       10.2820   18.2230   22.4220 C.ar   76  TYR76       0.0417
     20  CE2       10.4980   19.6560   24.3780 C.ar   76  TYR76       0.0417
     21  CZ         9.7620   19.1810   23.2900 C.ar   76  TYR76       0.1957
     22  OH         8.4930   19.6640   23.0580 O.3    76  TYR76      -0.2866
     23  N         11.7880   21.9430   21.3230 N.3    78  SER78      -0.1217
     24  CA        10.3480   22.1710   21.3070 C.3    78  SER78       0.1889
     25  C          9.8250   22.8700   20.0470 C.2    78  SER78       0.2288
     26  O          8.6150   22.8970   19.7360 O.2    78  SER78      -0.2866
     27  CB         9.9790   22.9680   22.5460 C.3    78  SER78       0.2089
     28  OG        10.6090   24.2470   22.5850 O.3    78  SER78      -0.2183
     29  N         10.1850   19.6190   17.4710 N.3    81  LEU81      -0.1245
     30  CA         9.7260   18.4210   18.1750 C.3    81  LEU81       0.1561
     31  C         10.6300   17.2340   17.8880 C.2    81  LEU81       0.2260
     32  O         10.3010   16.0670   18.0730 O.2    81  LEU81      -0.2867
     33  CB         8.2660   18.0990   17.8130 C.3    81  LEU81       0.0270
     34  CG         7.2840   19.1150   18.4090 C.3    81  LEU81       0.0019
     35  CD1        5.9210   18.7510   17.9450 C.3    81  LEU81       0.0001
     36  CD2        7.2280   19.0610   19.9090 C.3    81  LEU81       0.0001
     37  N         -6.9840    8.2760   13.5170 N.3   171  ASP171     -0.1225
     38  CA        -5.7370    8.9040   13.9150 C.3   171  ASP171      0.1805
     39  C         -5.6740    9.0230   15.4250 C.2   171  ASP171      0.2598
     40  O         -6.6940    8.8370   16.1000 O.2   171  ASP171     -0.2718
     41  CB        -5.6530   10.3140   13.3110 C.3   171  ASP171      0.1424
     42  CG        -4.3040   10.9930   13.3070 C.2   171  ASP171      0.3668
     43  OD1       -3.2980   10.4590   13.7600 O.co2 171  ASP171     -0.2456
     44  OD2       -4.2320   12.1120   12.8290 O.co2 171  ASP171     -0.2456
     45  N         -4.5190    9.3140   16.0060 N.am  172  SER172     -0.1938
     46  CA        -4.5040    9.6850   17.4110 C.3   172  SER172      0.2055
     47  C         -4.8240   11.1960   17.4420 C.2   172  SER172      0.2643
     48  O         -4.9900   11.8150   16.3710 O.2   172  SER172     -0.2714
     49  CB        -3.1200    9.3980   18.0140 C.3   172  SER172      0.2130
     50  OG        -2.0750    9.9620   17.2170 O.3   172  SER172     -0.2179
     51  N         -4.8920   11.8750   18.5830 N.am  173  CYS173     -0.1953
     52  CA        -5.2680   13.2840   18.6090 C.3   173  CYS173      0.1843
     53  C         -4.7940   13.9140   19.9090 C.2   173  CYS173      0.2625
     54  O         -4.1000   13.2770   20.6990 O.2   173  CYS173     -0.2714
     55  CB        -6.7690   13.3850   18.4760 C.3   173  CYS173      0.0997
     56  SG        -7.4410   14.9970   17.9810 S.3   173  CYS173     -0.0797
     57  N         -5.1140   15.1820   20.1760 N.am  174  GLN174     -0.1977
     58  CA        -4.7180   15.8510   21.3970 C.3   174  GLN174      0.1601
     59  C         -5.1820   15.0740   22.6350 C.2   174  GLN174      0.2287
     60  O         -6.3210   14.5750   22.7030 O.2   174  GLN174     -0.2864
     61  CB        -5.3000   17.2680   21.3910 C.3   174  GLN174      0.0394
     62  CG        -4.5660   18.2100   20.4140 C.3   174  GLN174      0.0908
     63  CD        -4.9430   18.1540   18.9310 C.2   174  GLN174      0.2608
     64  OE1       -4.1160   18.3260   18.0290 O.2   174  GLN174     -0.2717
     65  NE2       -6.1880   17.9680   18.5400 N.am  174  GLN174     -0.0878
     66  N         -1.1770   12.3310   23.3250 N.3   177  SER177     -0.1217
     67  CA         0.2560   12.6200   23.4270 C.3   177  SER177      0.1889
     68  C          0.9930   11.8510   24.4980 C.2   177  SER177      0.2288
     69  O          0.4890   11.7090   25.6090 O.2   177  SER177     -0.2866
     70  CB         0.4640   14.0930   23.6990 C.3   177  SER177      0.2089
     71  OG         0.3540   14.7530   22.4480 O.3   177  SER177     -0.2183
     72  N          3.1950    8.8140   20.7830 N.3   191  VAL191     -0.1231
     73  CA         2.3300    9.7910   20.1250 C.3   191  VAL191      0.1692
     74  C          2.9890   11.1640   20.3000 C.2   191  VAL191      0.2593
     75  O          3.1930   11.5790   21.4460 O.2   191  VAL191     -0.2718
     76  CB         0.9300    9.7550   20.7840 C.3   191  VAL191      0.0266
     77  CG1        0.0700   10.8200   20.1260 C.3   191  VAL191      0.0020
     78  CG2        0.2970    8.3530   20.6620 C.3   191  VAL191      0.0020
     79  N          3.3050   11.8580   19.2080 N.am  192  SER192     -0.1938
     80  CA         4.0290   13.0960   19.2970 C.3   192  SER192      0.2055
     81  C          3.2950   14.2550   18.6400 C.2   192  SER192      0.2643
     82  O          2.8960   15.1560   19.3730 O.2   192  SER192     -0.2714
     83  CB         5.3990   12.8630   18.6780 C.3   192  SER192      0.2130
     84  OG         6.2130   14.0300   18.6280 O.3   192  SER192     -0.2179
     85  N          3.0580   14.3330   17.3270 N.am  193  TRP193     -0.1959
     86  CA         2.3900   15.4850   16.7740 C.3   193  TRP193      0.1771
     87  C          1.6740   15.1530   15.4630 C.2   193  TRP193      0.2620
     88  O          1.5810   13.9880   15.0740 O.2   193  TRP193     -0.2715
     89  CB         3.4160   16.6030   16.5500 C.3   193  TRP193      0.0590
     90  CG         4.5290   16.3440   15.5260 C.ar  193  TRP193      0.0006
     91  CD1        5.6790   15.6940   15.8590 C.ar  193  TRP193      0.0946
     92  CD2        4.5550   16.8160   14.2310 C.ar  193  TRP193      0.0152
     93  NE1        6.4440   15.7670   14.7900 N.ar  193  TRP193     -0.2442
     94  CE2        5.8210   16.4230   13.8040 C.ar  193  TRP193      0.0810
     95  CE3        3.6900   17.5220   13.3760 C.ar  193  TRP193      0.0012
     96  CZ2        6.2600   16.7200   12.5190 C.ar  193  TRP193      0.0191
     97  CZ3        4.1250   17.8200   12.0880 C.ar  193  TRP193      0.0001
     98  CH2        5.4020   17.4250   11.6610 C.ar  193  TRP193      0.0015
     99  N          1.0930   16.1570   14.7880 N.am  194  GLY194     -0.1940
    100  CA         0.3810   15.9870   13.5180 C.3   194  GLY194      0.2014
    101  C         -0.3620   17.2880   13.2100 C.2   194  GLY194      0.2640
    102  O         -0.4360   18.1340   14.1210 O.2   194  GLY194     -0.2714
    103  N         -0.9080   17.5430   12.0240 N.am  195  SER195     -0.1935
    104  CA        -1.6380   18.7880   11.8130 C.3   195  SER195      0.2055
    105  C         -3.1070   18.4740   12.0240 C.2   195  SER195      0.2644
    106  O         -3.6490   17.7190   11.2120 O.2   195  SER195     -0.2714
    107  CB        -1.4460   19.3040   10.3890 C.3   195  SER195      0.2130
    108  OG        -0.0560   19.3900   10.1060 O.3   195  SER195     -0.2179
    109  N         -3.8060   18.9690   13.0430 N.am  196  GLY196     -0.1939
    110  CA        -5.1890   18.5580   13.2410 C.3   196  GLY196      0.2014
    111  C         -5.1980   17.0590   13.5520 C.2   196  GLY196      0.2639
    112  O         -4.1460   16.4760   13.8840 O.2   196  GLY196     -0.2714
    113  N         -6.3480   16.4150   13.4210 N.am  197  CYS197     -0.1967
    114  CA        -6.4390   14.9960   13.6900 C.3   197  CYS197      0.1712
    115  C         -7.2800   14.4060   12.5950 C.2   197  CYS197      0.2296
    116  O         -8.3240   14.9710   12.2540 O.2   197  CYS197     -0.2864
    117  CB        -7.1350   14.7160   15.0130 C.3   197  CYS197      0.0983
    118  SG        -6.3130   15.5250   16.4170 S.3   197  CYS197     -0.0798
    119  N         -2.6790   14.1220    6.2770 N.3   202  LYS202     -0.1231
    120  CA        -1.9210   14.5950    7.4120 C.3   202  LYS202      0.1678
    121  C         -1.9410   13.5040    8.4860 C.2   202  LYS202      0.2434
    122  O         -2.6890   13.6020    9.4700 O.2   202  LYS202     -0.2733
    123  CB        -2.5430   15.9160    7.9180 C.3   202  LYS202      0.0284
    124  CG        -2.3470   17.1290    6.9880 C.3   202  LYS202      0.0035
    125  CD        -0.8470   17.4160    6.8840 C.3   202  LYS202      0.0206
    126  CE        -0.5270   18.5700    5.9190 C.3   202  LYS202      0.1093
    127  NZ         0.8970   18.8530    5.8640 N.3   202  LYS202     -0.1314
    128  N         -1.1760   12.4020    8.3230 N.am  203  PRO203     -0.2718
    129  CA        -1.1170   11.2860    9.2720 C.3   203  PRO203      0.1535
    130  C         -0.4880   11.6880   10.6100 C.2   203  PRO203      0.2599
    131  O          0.1100   12.7660   10.7170 O.2   203  PRO203     -0.2715
    132  CB        -0.3210   10.2320    8.5490 C.3   203  PRO203      0.0310
    133  CG         0.6590   11.0530    7.7170 C.3   203  PRO203      0.0237
    134  CD        -0.2690   12.1470    7.1990 C.3   203  PRO203      0.0939
    135  N         -0.5470   10.8240   11.6260 N.am  204  GLY204     -0.1955
    136  CA         0.0600   11.1560   12.9000 C.3   204  GLY204      0.1869
    137  C          1.5630   10.9750   12.7860 C.2   204  GLY204      0.2309
    138  O          2.0420   10.1120   12.0330 O.2   204  GLY204     -0.2863
    139  N          5.1570   10.2750   14.9990 N.3   206  TYR206     -0.1241
    140  CA         5.5260    9.5590   16.2050 C.3   206  TYR206      0.1605
    141  C          7.0300    9.5410   16.4180 C.2   206  TYR206      0.2264
    142  O          7.7900    9.4560   15.4470 O.2   206  TYR206     -0.2867
    143  CB         4.9680    8.1090   16.0760 C.3   206  TYR206      0.0534
    144  CG         3.4430    8.0310   15.9180 C.ar  206  TYR206     -0.0201
    145  CD1        2.6550    7.9910   17.0720 C.ar  206  TYR206     -0.0009
    146  CD2        2.8190    8.0770   14.6660 C.ar  206  TYR206     -0.0009
    147  CE1        1.2640    8.0140   16.9900 C.ar  206  TYR206      0.0417
    148  CE2        1.4240    8.1050   14.5790 C.ar  206  TYR206      0.0417
    149  CZ         0.6610    8.0790   15.7430 C.ar  206  TYR206      0.1957
    150  OH        -0.7120    8.1320   15.7140 O.3   206  TYR206     -0.2866
@<TRIPOS>BOND
     1   127   126    1
     2   126   125    1
     3   119   120    1
     4   125   124    1
     5   124   123    1
     6   134   133    1
     7   134   128    1
     8   120   123    1
     9   120   121    1
    10   133   132    1
    11   128   121   am
    12   128   129    1
    13   121   122    2
    14   132   129    1
    15   129   130    1
    16   108   107    1
    17   107   104    1
    18   130   131    2
    19   130   135   am
    20   106   105    2
    21   135   136    1
    22    98    97   ar
    23    98    96   ar
    24   104   105    1
    25   104   103    1
    26   105   109   am
    27   103   101   am
    28   138   137    2
    29    97    95   ar
    30   116   115    2
    31    96    94   ar
    32   115   114    1
    33   137   136    1
    34    44    42   ar
    35   109   110    1
    36   101   100    1
    37   101   102    2
    38   110   111    1
    39    42    41    1
    40    42    43   ar
    41    41    38    1
    42    95    92   ar
    43   113   111   am
    44   113   114    1
    45    37    38    1
    46   100    99    1
    47   111   112    2
    48   114   117    1
    49    94    92   ar
    50    94    93   ar
    51    38    39    1
    52    92    90   ar
    53   148   146   ar
    54   148   149   ar
    55   146   144   ar
    56    99    87   am
    57    93    91   ar
    58   139   140    1
    59   117   118    1
    60    88    87    2
    61    39    45   am
    62    39    40    2
    63   142   141    2
    64    87    86    1
    65    90    91   ar
    66    90    89    1
    67   150   149    1
    68   149   147   ar
    69   144   143    1
    70   144   145   ar
    71    45    46    1
    72   143   140    1
    73   140   141    1
    74    48    47    2
    75   118    56    1
    76    89    86    1
    77    86    85    1
    78   147   145   ar
    79    50    49    1
    80    85    81   am
    81    46    47    1
    82    46    49    1
    83    47    51   am
    84    29    30    1
    85    33    30    1
    86    33    34    1
    87    31    32    2
    88    31    30    1
    89    35    34    1
    90    56    55    1
    91    64    63    2
    92    34    36    1
    93    55    52    1
    94    65    63   am
    95    51    52    1
    96    52    53    1
    97    84    83    1
    98    81    80    1
    99    81    82    2
   100    83    80    1
   101    63    62    1
   102    79    80    1
   103    79    74   am
   104    26    25    2
   105    53    57   am
   106    53    54    2
   107    25    24    1
   108    73    74    1
   109    73    72    1
   110    73    76    1
   111    77    76    1
   112    57    58    1
   113    74    75    2
   114    62    61    1
   115    78    76    1
   116    24    23    1
   117    24    27    1
   118    61    58    1
   119    58    59    1
   120     9     7   ar
   121     9    10   ar
   122    13    12    1
   123    13    14    2
   124    19    17   ar
   125    19    21   ar
   126     7     6   ar
   127    71    70    1
   128    27    28    1
   129    59    60    2
   130    17    16   ar
   131    12    11    1
   132    12    15    1
   133    10     8   ar
   134    22    21    1
   135    21    20   ar
   136    66    67    1
   137     6     8   ar
   138     6     5    1
   139    67    70    1
   140    67    68    1
   141    16    15    1
   142    16    18   ar
   143     5     2    1
   144    20    18   ar
   145    68    69    2
   146     1     2    1
   147     2     3    1
   148     3     4    2
