@<TRIPOS>MOLECULE
tmp/1bjvA00.pdb
 151 147 0 0 0
SMALL
GASTEIGER

@<TRIPOS>ATOM
      1  N          7.4260   16.7440   24.6780 N.3    40  HIS40      -0.1241
      2  CA         6.4490   17.8320   24.6740 C.3    40  HIS40       0.1621
      3  C          5.3620   17.6400   25.7050 C.2    40  HIS40       0.2264
      4  O          4.5310   18.5230   25.8350 O.2    40  HIS40      -0.2867
      5  CB         5.7810   18.0030   23.2820 C.3    40  HIS40       0.0745
      6  CG         4.5950   17.1780   22.7910 C.ar   40  HIS40       0.0817
      7  ND1        4.6160   16.1330   21.9570 N.ar   40  HIS40      -0.2268
      8  CD2        3.2560   17.4420   23.0420 C.ar   40  HIS40       0.1154
      9  CE1        3.3900   15.7630   21.6830 C.ar   40  HIS40       0.1986
     10  NE2        2.5890   16.5620   22.3450 N.ar   40  HIS40      -0.2212
     11  N         16.1780   17.3240   22.4610 N.3    76  TYR76      -0.1241
     12  CA        14.8060   17.6010   22.0710 C.3    76  TYR76       0.1605
     13  C         14.7170   19.0580   21.6500 C.2    76  TYR76       0.2264
     14  O         15.1680   19.9270   22.4100 O.2    76  TYR76      -0.2867
     15  CB        13.8400   17.3890   23.2260 C.3    76  TYR76       0.0534
     16  CG        12.4510   17.9620   22.9920 C.ar   76  TYR76      -0.0201
     17  CD1       11.6520   17.5140   21.9240 C.ar   76  TYR76      -0.0009
     18  CD2       11.9780   18.9220   23.8820 C.ar   76  TYR76      -0.0009
     19  CE1       10.3700   18.0210   21.7480 C.ar   76  TYR76       0.0417
     20  CE2       10.6870   19.4320   23.7140 C.ar   76  TYR76       0.0417
     21  CZ         9.9020   18.9750   22.6520 C.ar   76  TYR76       0.1957
     22  OH         8.6280   19.4680   22.4990 O.3    76  TYR76      -0.2866
     23  N         11.7960   21.6820   20.8180 N.3    78  SER78      -0.1202
     24  CA        10.3580   21.8900   20.8610 C.3    78  SER78       0.2020
     25  C          9.7650   22.5630   19.6580 C.2    78  SER78       0.2618
     26  O          8.5600   22.4670   19.4040 O.2    78  SER78      -0.2717
     27  CB         9.9760   22.7150   22.0890 C.3    78  SER78       0.2103
     28  OG        10.9040   23.7800   22.2530 O.3    78  SER78      -0.2182
     29  N         10.5810   23.2830   18.8980 N.am   79  ASN79      -0.1974
     30  CA        10.1070   23.9640   17.7180 C.3    79  ASN79       0.1688
     31  C          9.9060   23.0090   16.5850 C.2    79  ASN79       0.2292
     32  O          8.9120   23.1590   15.8950 O.2    79  ASN79      -0.2864
     33  CB        11.0700   25.0100   17.2430 C.3    79  ASN79       0.1181
     34  CG        11.1520   26.2010   18.1770 C.2    79  ASN79       0.2629
     35  OD1       12.2380   26.7330   18.3650 O.2    79  ASN79      -0.2716
     36  ND2       10.0500   26.6270   18.7450 N.am   79  ASN79      -0.0877
     37  N          9.9820   19.5700   17.0170 N.3    81  LEU81      -0.1245
     38  CA         9.6200   18.3330   17.6940 C.3    81  LEU81       0.1561
     39  C         10.5680   17.1620   17.3560 C.2    81  LEU81       0.2260
     40  O         10.2720   15.9660   17.5010 O.2    81  LEU81      -0.2867
     41  CB         8.1400   18.0450   17.3630 C.3    81  LEU81       0.0270
     42  CG         7.1180   18.3580   18.4610 C.3    81  LEU81       0.0019
     43  CD1        7.1980   19.7650   18.9640 C.3    81  LEU81       0.0001
     44  CD2        5.7600   18.1860   17.8690 C.3    81  LEU81       0.0001
     45  N         -6.9290    8.1420   13.0390 N.3   171  ASP171     -0.1225
     46  CA        -5.7060    8.7920   13.4710 C.3   171  ASP171      0.1805
     47  C         -5.6390    8.9410   14.9890 C.2   171  ASP171      0.2598
     48  O         -6.6240    8.7520   15.7070 O.2   171  ASP171     -0.2718
     49  CB        -5.6400   10.1900   12.8260 C.3   171  ASP171      0.1424
     50  CG        -4.2540   10.8380   12.7510 C.2   171  ASP171      0.3668
     51  OD1       -3.2590   10.2670   13.2120 O.co2 171  ASP171     -0.2456
     52  OD2       -4.1440   11.9430   12.1890 O.co2 171  ASP171     -0.2456
     53  N         -4.4690    9.2610   15.5280 N.am  172  SER172     -0.1938
     54  CA        -4.3930    9.6750   16.9120 C.3   172  SER172      0.2055
     55  C         -4.7380   11.1870   16.9230 C.2   172  SER172      0.2643
     56  O         -4.9120   11.7950   15.8590 O.2   172  SER172     -0.2714
     57  CB        -2.9850    9.4310   17.4740 C.3   172  SER172      0.2130
     58  OG        -1.9480    9.9720   16.6660 O.3   172  SER172     -0.2179
     59  N         -4.8230   11.8530   18.0640 N.am  173  CYS173     -0.1953
     60  CA        -5.2360   13.2480   18.0830 C.3   173  CYS173      0.1843
     61  C         -4.7230   13.8510   19.3810 C.2   173  CYS173      0.2625
     62  O         -4.0270   13.1930   20.1570 O.2   173  CYS173     -0.2714
     63  CB        -6.7710   13.2730   18.0120 C.3   173  CYS173      0.0997
     64  SG        -7.4570   14.8590   17.5000 S.3   173  CYS173     -0.0797
     65  N         -5.0440   15.1230   19.6400 N.am  174  GLN174     -0.1977
     66  CA        -4.6910   15.8050   20.8680 C.3   174  GLN174      0.1601
     67  C         -5.1610   14.9680   22.0630 C.2   174  GLN174      0.2287
     68  O         -6.2850   14.4190   22.0640 O.2   174  GLN174     -0.2864
     69  CB        -5.3620   17.1850   20.9030 C.3   174  GLN174      0.0394
     70  CG        -4.7020   18.2670   20.0120 C.3   174  GLN174      0.0908
     71  CD        -4.7580   18.0840   18.5000 C.2   174  GLN174      0.2608
     72  OE1       -3.8710   18.4760   17.7450 O.2   174  GLN174     -0.2717
     73  NE2       -5.7890   17.5270   17.9000 N.am  174  GLN174     -0.0878
     74  N         -1.0970   12.2340   22.7500 N.3   177  SER177     -0.1217
     75  CA         0.3430   12.4590   22.8900 C.3   177  SER177      0.1889
     76  C          1.0850   11.7230   23.9920 C.2   177  SER177      0.2288
     77  O          0.5570   11.5540   25.0880 O.2   177  SER177     -0.2866
     78  CB         0.5830   13.9410   23.0600 C.3   177  SER177      0.2089
     79  OG         0.5310   14.4520   21.7360 O.3   177  SER177     -0.2183
     80  N          3.2850    8.8570   20.2500 N.3   191  VAL191     -0.1231
     81  CA         2.3780    9.7880   19.5930 C.3   191  VAL191      0.1692
     82  C          2.9830   11.1800   19.7630 C.2   191  VAL191      0.2593
     83  O          3.1370   11.6270   20.9090 O.2   191  VAL191     -0.2718
     84  CB         0.9830    9.7020   20.2570 C.3   191  VAL191      0.0266
     85  CG1        0.0470   10.5850   19.4990 C.3   191  VAL191      0.0020
     86  CG2        0.3950    8.2810   20.2140 C.3   191  VAL191      0.0020
     87  N          3.2850   11.8510   18.6630 N.am  192  SER192     -0.1938
     88  CA         4.0360   13.0870   18.7700 C.3   192  SER192      0.2055
     89  C          3.3480   14.2670   18.1160 C.2   192  SER192      0.2643
     90  O          3.0910   15.2540   18.8140 O.2   192  SER192     -0.2714
     91  CB         5.4120   12.8430   18.1620 C.3   192  SER192      0.2130
     92  OG         6.2360   13.9840   17.9740 O.3   192  SER192     -0.2179
     93  N          3.0760   14.2280   16.8150 N.am  193  TRP193     -0.1959
     94  CA         2.4160   15.3270   16.1510 C.3   193  TRP193      0.1771
     95  C          1.6580   14.9560   14.8780 C.2   193  TRP193      0.2620
     96  O          1.5220   13.7820   14.5310 O.2   193  TRP193     -0.2715
     97  CB         3.4610   16.4050   15.8630 C.3   193  TRP193      0.0590
     98  CG         4.5750   16.1390   14.8570 C.ar  193  TRP193      0.0006
     99  CD1        5.7330   15.5160   15.2140 C.ar  193  TRP193      0.0946
    100  CD2        4.6110   16.6060   13.5540 C.ar  193  TRP193      0.0152
    101  NE1        6.5230   15.6070   14.1690 N.ar  193  TRP193     -0.2442
    102  CE2        5.9130   16.2460   13.1520 C.ar  193  TRP193      0.0810
    103  CE3        3.7440   17.2760   12.6970 C.ar  193  TRP193      0.0012
    104  CZ2        6.3590   16.5670   11.8580 C.ar  193  TRP193      0.0191
    105  CZ3        4.1900   17.5930   11.4120 C.ar  193  TRP193      0.0001
    106  CH2        5.4820   17.2400   11.0000 C.ar  193  TRP193      0.0015
    107  N          1.0320   15.9340   14.2220 N.am  194  GLY194     -0.1940
    108  CA         0.2910   15.7760   12.9670 C.3   194  GLY194      0.2014
    109  C         -0.4760   17.0730   12.7090 C.2   194  GLY194      0.2640
    110  O         -0.7200   17.8310   13.6650 O.2   194  GLY194     -0.2714
    111  N         -0.8700   17.4080   11.4940 N.am  195  SER195     -0.1935
    112  CA        -1.6360   18.6190   11.2320 C.3   195  SER195      0.2055
    113  C         -3.1300   18.2860   11.3510 C.2   195  SER195      0.2644
    114  O         -3.6780   17.5540   10.5090 O.2   195  SER195     -0.2714
    115  CB        -1.2210   19.1040    9.8290 C.3   195  SER195      0.2130
    116  OG        -2.2070   19.9430    9.2490 O.3   195  SER195     -0.2179
    117  N         -3.8210   18.7640   12.3890 N.am  196  GLY196     -0.1939
    118  CA        -5.2070   18.3790   12.6230 C.3   196  GLY196      0.2014
    119  C         -5.1960   16.8990   13.0430 C.2   196  GLY196      0.2639
    120  O         -4.1540   16.3230   13.4070 O.2   196  GLY196     -0.2714
    121  N         -6.3290   16.2340   12.9360 N.am  197  CYS197     -0.1967
    122  CA        -6.4390   14.8100   13.2450 C.3   197  CYS197      0.1712
    123  C         -7.3340   14.2010   12.1800 C.2   197  CYS197      0.2296
    124  O         -8.4200   14.7300   11.8960 O.2   197  CYS197     -0.2864
    125  CB        -7.1010   14.6150   14.5950 C.3   197  CYS197      0.0983
    126  SG        -6.3030   15.4840   15.9660 S.3   197  CYS197     -0.0798
    127  N         -2.7570   13.9770    5.8840 N.3   202  LYS202     -0.1245
    128  CA        -2.0200   14.4760    7.0100 C.3   202  LYS202      0.1561
    129  C         -2.0490   13.4060    8.0670 C.2   202  LYS202      0.2260
    130  O         -2.8210   13.4740    9.0290 O.2   202  LYS202     -0.2867
    131  CB        -2.6380   15.7700    7.5330 C.3   202  LYS202      0.0271
    132  CG        -2.3120   16.9200    6.5960 C.3   202  LYS202      0.0035
    133  CD        -3.6230   17.4630    6.0960 C.3   202  LYS202      0.0206
    134  CE        -4.0390   18.7110    6.8720 C.3   202  LYS202      0.1093
    135  NZ        -4.0680   19.8230    5.9350 N.3   202  LYS202     -0.1314
    136  N         -0.5930   10.8340   11.1320 N.3   204  GLY204     -0.1225
    137  CA         0.0900   11.0560   12.3790 C.3   204  GLY204      0.1811
    138  C          1.5860   10.8600   12.1980 C.2   204  GLY204      0.2280
    139  O          2.0470   10.0210   11.4060 O.2   204  GLY204     -0.2866
    140  N          5.1050   10.1930   14.4430 N.3   206  TYR206     -0.1241
    141  CA         5.4940    9.4530   15.6410 C.3   206  TYR206      0.1605
    142  C          6.9800    9.4470   15.9110 C.2   206  TYR206      0.2264
    143  O          7.7730    9.3950   14.9590 O.2   206  TYR206     -0.2867
    144  CB         4.9980    7.9950   15.4830 C.3   206  TYR206      0.0534
    145  CG         3.4720    7.9410   15.3430 C.ar  206  TYR206     -0.0201
    146  CD1        2.7070    7.9390   16.4980 C.ar  206  TYR206     -0.0009
    147  CD2        2.8450    7.9710   14.0830 C.ar  206  TYR206     -0.0009
    148  CE1        1.3150    7.9800   16.4220 C.ar  206  TYR206      0.0417
    149  CE2        1.4540    8.0160   13.9970 C.ar  206  TYR206      0.0417
    150  CZ         0.7020    8.0250   15.1670 C.ar  206  TYR206      0.1957
    151  OH        -0.6770    8.1080   15.1290 O.3   206  TYR206     -0.2866
@<TRIPOS>BOND
     1   127   128    1
     2   135   134    1
     3   133   132    1
     4   133   134    1
     5   132   131    1
     6   128   131    1
     7   128   129    1
     8   129   130    2
     9   116   115    1
    10   115   112    1
    11   114   113    2
    12   106   105   ar
    13   106   104   ar
    14   136   137    1
    15   112   113    1
    16   112   111    1
    17   113   117   am
    18   139   138    2
    19   105   103   ar
    20   111   109   am
    21   104   102   ar
    22   124   123    2
    23   123   122    1
    24    52    50   ar
    25   138   137    1
    26   117   118    1
    27   118   119    1
    28   103   100   ar
    29   109   108    1
    30   109   110    2
    31    50    49    1
    32    50    51   ar
    33    49    46    1
    34   121   119   am
    35   121   122    1
    36   108   107    1
    37    45    46    1
    38   119   120    2
    39   102   100   ar
    40   102   101   ar
    41   122   125    1
    42    46    47    1
    43   100    98   ar
    44   149   147   ar
    45   149   150   ar
    46   147   145   ar
    47   101    99   ar
    48   107    95   am
    49   140   141    1
    50    96    95    2
    51   125   126    1
    52    98    99   ar
    53    98    97    1
    54    95    94    1
    55   143   142    2
    56    47    53   am
    57    47    48    2
    58   151   150    1
    59   150   148   ar
    60   145   144    1
    61   145   146   ar
    62   144   141    1
    63    53    54    1
    64   141   142    1
    65    56    55    2
    66    97    94    1
    67    32    31    2
    68   126    64    1
    69    94    93    1
    70   148   146   ar
    71    31    30    1
    72    58    57    1
    73    93    89   am
    74    54    55    1
    75    54    57    1
    76    55    59   am
    77    37    38    1
    78    33    30    1
    79    33    34    1
    80    39    40    2
    81    39    38    1
    82    41    38    1
    83    41    42    1
    84    64    63    1
    85    30    29    1
    86    72    71    2
    87    44    42    1
    88    73    71   am
    89    92    91    1
    90    63    60    1
    91    59    60    1
    92    60    61    1
    93    89    88    1
    94    89    90    2
    95    91    88    1
    96    34    35    2
    97    34    36   am
    98    42    43    1
    99    71    70    1
   100    87    88    1
   101    87    82   am
   102    29    25   am
   103    61    65   am
   104    61    62    2
   105    26    25    2
   106    85    84    1
   107    81    82    1
   108    81    80    1
   109    81    84    1
   110    65    66    1
   111    25    24    1
   112    82    83    2
   113    70    69    1
   114    86    84    1
   115    23    24    1
   116    24    27    1
   117    66    69    1
   118    66    67    1
   119    13    12    1
   120    13    14    2
   121     9     7   ar
   122     9    10   ar
   123    79    78    1
   124    19    17   ar
   125    19    21   ar
   126    17    16   ar
   127     7     6   ar
   128    67    68    2
   129    12    11    1
   130    12    15    1
   131    27    28    1
   132    10     8   ar
   133    22    21    1
   134    21    20   ar
   135    74    75    1
   136     6     8   ar
   137     6     5    1
   138    75    78    1
   139    75    76    1
   140    16    15    1
   141    16    18   ar
   142     5     2    1
   143    20    18   ar
   144    76    77    2
   145     2     1    1
   146     2     3    1
   147     3     4    2
