@<TRIPOS>MOLECULE
tmp/1bk6D00.pdb
 244 236 0 0 0
SMALL
GASTEIGER

@<TRIPOS>ATOM
      1  N         56.0700   32.0610   11.5340 N.3    27  LEU27      -0.1231
      2  CA        56.7230   32.5130   12.7580 C.3    27  LEU27       0.1693
      3  C         56.0990   31.7240   13.9020 C.2    27  LEU27       0.2593
      4  O         56.5140   31.8320   15.0530 O.2    27  LEU27      -0.2718
      5  CB        56.5120   34.0130   12.9670 C.3    27  LEU27       0.0284
      6  CG        57.1820   34.9480   11.9560 C.3    27  LEU27       0.0019
      7  CD1       56.8020   36.3640   12.2920 C.3    27  LEU27       0.0001
      8  CD2       58.7010   34.7840   11.9820 C.3    27  LEU27       0.0001
      9  N         55.1010   30.9140   13.5480 N.am   28  SER28      -0.1938
     10  CA        54.3640   30.0820   14.4910 C.3    28  SER28       0.2055
     11  C         54.6260   28.5900   14.3360 C.2    28  SER28       0.2643
     12  O         53.8460   27.7700   14.8340 O.2    28  SER28      -0.2714
     13  CB        52.8660   30.3270   14.3480 C.3    28  SER28       0.2130
     14  OG        52.5370   31.6460   14.7270 O.3    28  SER28      -0.2179
     15  N         55.7050   28.2400   13.6340 N.am   29  ARG29      -0.1963
     16  CA        56.0730   26.8360   13.4400 C.3    29  ARG29       0.1729
     17  C         56.2950   26.2410   14.8190 C.2    29  ARG29       0.2616
     18  O         56.1910   26.9340   15.8330 O.2    29  ARG29      -0.2715
     19  CB        57.4040   26.6850   12.6990 C.3    29  ARG29       0.0348
     20  CG        57.5110   27.2520   11.3050 C.3    29  ARG29       0.0492
     21  CD        58.9360   26.9820   10.8000 C.3    29  ARG29       0.2205
     22  NE        59.2150   27.5620    9.4870 N.pl3  29  ARG29      -0.0865
     23  CZ        60.3840   27.4510    8.8580 C.cat  29  ARG29       0.5346
     24  NH1       61.3800   26.7820    9.4250 N.pl3  29  ARG29       0.1354
     25  NH2       60.5590   27.9980    7.6590 N.pl3  29  ARG29       0.1354
     26  N         56.6230   24.9560   14.8480 N.am   30  GLU30      -0.1963
     27  CA        56.9090   24.2820   16.1000 C.3    30  GLU30       0.1733
     28  C         58.4240   24.3330   16.2440 C.2    30  GLU30       0.2616
     29  O         58.9500   24.3580   17.3530 O.2    30  GLU30      -0.2715
     30  CB        56.4310   22.8250   16.0590 C.3    30  GLU30       0.0429
     31  CG        54.9880   22.6230   15.5820 C.3    30  GLU30       0.1163
     32  CD        53.9400   23.2410   16.4990 C.2    30  GLU30       0.3649
     33  OE1       54.1700   23.3350   17.7210 O.co2  30  GLU30      -0.2457
     34  OE2       52.8690   23.6220   16.0000 O.co2  30  GLU30      -0.2457
     35  N         59.1130   24.3810   15.1050 N.am   31  HIS31      -0.1973
     36  CA        60.5760   24.4100   15.0680 C.3    31  HIS31       0.1656
     37  C         61.2290   25.8050   15.1450 C.2    31  HIS31       0.2291
     38  O         60.6970   26.7210   15.7760 O.2    31  HIS31      -0.2864
     39  CB        61.0670   23.6790   13.8150 C.3    31  HIS31       0.0771
     40  CG        60.4960   22.2910   13.7800 C.ar   31  HIS31       0.0820
     41  ND1       60.7120   21.4030   14.8190 N.ar   31  HIS31      -0.2267
     42  CD2       59.6920   21.6700   12.8940 C.ar   31  HIS31       0.1154
     43  CE1       60.0750   20.2750   14.5590 C.ar   31  HIS31       0.1986
     44  NE2       59.4550   20.4100   13.3950 N.ar   31  HIS31      -0.2212
     45  N         61.8500   29.2570   14.1610 N.3    33  PRO33      -0.2116
     46  CA        61.2110   30.3260   13.3970 C.3    33  PRO33       0.1372
     47  C         62.2410   31.2080   12.7090 C.2    33  PRO33       0.2244
     48  O         63.1130   31.7860   13.3520 O.2    33  PRO33      -0.2868
     49  CB        60.4410   31.0790   14.4700 C.3    33  PRO33       0.0268
     50  CG        61.3820   30.9600   15.6490 C.3    33  PRO33       0.0207
     51  CD        61.6180   29.4670   15.6000 C.3    33  PRO33       0.0892
     52  N         63.2250   34.0470   12.0800 N.3    35  ILE35      -0.1245
     53  CA        63.0530   35.4530   12.4430 C.3    35  ILE35       0.1561
     54  C         63.9090   36.4140   11.6270 C.2    35  ILE35       0.2260
     55  O         63.3920   37.3770   11.0550 O.2    35  ILE35      -0.2867
     56  CB        63.3280   35.6870   13.9430 C.3    35  ILE35       0.0252
     57  CG1       62.3150   34.8880   14.7650 C.3    35  ILE35       0.0019
     58  CG2       63.2550   37.1820   14.2690 C.3    35  ILE35       0.0019
     59  CD1       62.4490   35.0510   16.2520 C.3    35  ILE35       0.0001
     60  N         50.2600   39.3580   16.0110 N.3    65  TRP65      -0.1241
     61  CA        50.7120   37.9860   16.2680 C.3    65  TRP65       0.1605
     62  C         52.1210   37.7380   15.7280 C.2    65  TRP65       0.2264
     63  O         52.9960   37.2550   16.4420 O.2    65  TRP65      -0.2867
     64  CB        49.7420   36.9820   15.6290 C.3    65  TRP65       0.0550
     65  CG        50.0120   35.5510   15.9850 C.ar   65  TRP65       0.0003
     66  CD1       51.2060   35.0080   16.4100 C.ar   65  TRP65       0.0946
     67  CD2       49.1130   34.4450   15.8270 C.ar   65  TRP65       0.0152
     68  NE1       51.1030   33.6380   16.5180 N.ar   65  TRP65      -0.2442
     69  CE2       49.8350   33.2630   16.1620 C.ar   65  TRP65       0.0810
     70  CE3       47.7760   34.3300   15.4310 C.ar   65  TRP65       0.0012
     71  CZ2       49.2570   31.9880   16.1120 C.ar   65  TRP65       0.0191
     72  CZ3       47.2020   33.0630   15.3750 C.ar   65  TRP65       0.0001
     73  CH2       47.9440   31.9050   15.7230 C.ar   65  TRP65       0.0015
     74  N         54.5600   39.7540   17.6990 N.3    68  THR68      -0.1203
     75  CA        54.8420   39.2810   19.0390 C.3    68  THR68       0.1994
     76  C         55.9300   38.2010   18.9710 C.2    68  THR68       0.2617
     77  O         56.8300   38.1530   19.8120 O.2    68  THR68      -0.2717
     78  CB        53.5650   38.7120   19.7120 C.3    68  THR68       0.1784
     79  OG1       53.0810   37.5980   18.9590 O.3    68  THR68      -0.2211
     80  CG2       52.4690   39.7460   19.7440 C.3    68  THR68       0.0376
     81  N         55.8600   37.3390   17.9600 N.am   69  ASN69      -0.1974
     82  CA        56.8650   36.2880   17.8230 C.3    69  ASN69       0.1688
     83  C         58.2300   36.8110   17.3670 C.2    69  ASN69       0.2292
     84  O         59.2670   36.2340   17.6900 O.2    69  ASN69      -0.2864
     85  CB        56.3770   35.1800   16.8820 C.3    69  ASN69       0.1181
     86  CG        55.2480   34.3670   17.4890 C.2    69  ASN69       0.2629
     87  OD1       55.0580   34.3610   18.7080 O.2    69  ASN69      -0.2716
     88  ND2       54.5130   33.6520   16.6470 N.am   69  ASN69      -0.0877
     89  N         59.2890   39.4670   18.3700 N.3    71  ALA71      -0.1231
     90  CA        59.7760   40.0300   19.6250 C.3    71  ALA71       0.1694
     91  C         60.0610   38.9810   20.7070 C.2    71  ALA71       0.2593
     92  O         60.3050   39.3250   21.8620 O.2    71  ALA71      -0.2718
     93  CB        58.7900   41.0820   20.1510 C.3    71  ALA71       0.0304
     94  N         60.0200   37.7060   20.3470 N.am   72  SER72      -0.1938
     95  CA        60.3160   36.6610   21.3170 C.3    72  SER72       0.2055
     96  C         61.7300   36.1290   21.0550 C.2    72  SER72       0.2644
     97  O         62.1610   35.1380   21.6520 O.2    72  SER72      -0.2714
     98  CB        59.2810   35.5280   21.2350 C.3    72  SER72       0.2130
     99  OG        59.2360   34.9280   19.9540 O.3    72  SER72      -0.2179
    100  N         62.4530   36.8100   20.1680 N.am   73  GLY73      -0.1939
    101  CA        63.8040   36.3990   19.8390 C.3    73  GLY73       0.2014
    102  C         64.8560   36.9900   20.7600 C.2    73  GLY73       0.2639
    103  O         64.6910   37.0190   21.9830 O.2    73  GLY73      -0.2714
    104  N         65.9430   37.4590   20.1590 N.am   74  THR74      -0.1950
    105  CA        67.0620   38.0550   20.8860 C.3    74  THR74       0.1897
    106  C         66.8100   39.5420   21.1200 C.2    74  THR74       0.2313
    107  O         65.8770   40.1130   20.5480 O.2    74  THR74      -0.2863
    108  CB        68.3710   37.8910   20.0820 C.3    74  THR74       0.1794
    109  OG1       68.2400   38.5400   18.8050 O.3    74  THR74      -0.2208
    110  CG2       68.6680   36.4180   19.8560 C.3    74  THR74       0.0378
    111  N         64.3150   41.9810   19.1410 N.3    78  THR78      -0.1218
    112  CA        63.2280   42.6790   19.8210 C.3    78  THR78       0.1862
    113  C         63.3630   44.1770   19.5960 C.2    78  THR78       0.2287
    114  O         62.3850   44.9140   19.6530 O.2    78  THR78      -0.2866
    115  CB        63.2430   42.4060   21.3360 C.3    78  THR78       0.1770
    116  OG1       63.1130   41.0020   21.5660 O.3    78  THR78      -0.2211
    117  CG2       62.0970   43.1270   22.0210 C.3    78  THR78       0.0375
    118  N         44.4630   40.0250   23.6740 N.3   103  GLU103     -0.1231
    119  CA        45.2480   38.8370   24.0250 C.3   103  GLU103      0.1699
    120  C         46.6360   38.9110   23.3680 C.2   103  GLU103      0.2592
    121  O         47.6410   38.6930   24.0270 O.2   103  GLU103     -0.2718
    122  CB        44.4920   37.5830   23.5530 C.3   103  GLU103      0.0402
    123  CG        44.1490   36.5230   24.6320 C.3   103  GLU103      0.1161
    124  CD        45.3580   35.7250   25.1050 C.2   103  GLU103      0.3649
    125  OE1       45.9620   34.9910   24.2990 O.co2 103  GLU103     -0.2457
    126  OE2       45.7130   35.8310   26.2920 O.co2 103  GLU103     -0.2457
    127  N         46.6790   39.2170   22.0700 N.am  104  GLN104     -0.1979
    128  CA        47.9410   39.3450   21.3420 C.3   104  GLN104      0.1601
    129  C         48.7630   40.5340   21.8040 C.2   104  GLN104      0.2287
    130  O         49.9680   40.4170   21.9980 O.2   104  GLN104     -0.2864
    131  CB        47.7250   39.5090   19.8320 C.3   104  GLN104      0.0394
    132  CG        47.3890   38.2510   19.0760 C.3   104  GLN104      0.0908
    133  CD        48.3800   37.1390   19.3430 C.2   104  GLN104      0.2608
    134  OE1       48.0160   35.9770   19.5190 O.2   104  GLN104     -0.2717
    135  NE2       49.6460   37.4980   19.3730 N.am  104  GLN104     -0.0878
    136  N         50.4700   40.1860   25.1000 N.3   107  TRP107     -0.1241
    137  CA        51.5010   39.1600   24.9390 C.3   107  TRP107      0.1605
    138  C         52.7480   39.8200   24.3730 C.2   107  TRP107      0.2264
    139  O         53.8360   39.6560   24.9060 O.2   107  TRP107     -0.2867
    140  CB        51.0470   38.0450   23.9840 C.3   107  TRP107      0.0550
    141  CG        51.9740   36.8550   23.9890 C.ar  107  TRP107      0.0003
    142  CD1       53.3370   36.8870   24.0380 C.ar  107  TRP107      0.0946
    143  CD2       51.6130   35.4700   23.9070 C.ar  107  TRP107      0.0152
    144  NE1       53.8480   35.6180   23.9920 N.ar  107  TRP107     -0.2442
    145  CE2       52.8140   34.7260   23.9110 C.ar  107  TRP107      0.0810
    146  CE3       50.3930   34.7820   23.8320 C.ar  107  TRP107      0.0012
    147  CZ2       52.8330   33.3300   23.8390 C.ar  107  TRP107      0.0191
    148  CZ3       50.4100   33.3930   23.7630 C.ar  107  TRP107      0.0001
    149  CH2       51.6240   32.6830   23.7670 C.ar  107  TRP107      0.0015
    150  N         54.4420   41.7880   26.7380 N.3   110  GLY110     -0.1210
    151  CA        55.1230   40.9490   27.7010 C.3   110  GLY110      0.1956
    152  C         56.5460   40.6640   27.2540 C.2   110  GLY110      0.2611
    153  O         57.4740   40.7260   28.0570 O.2   110  GLY110     -0.2717
    154  N         56.7290   40.3580   25.9720 N.am  111  ASN111     -0.1974
    155  CA        58.0630   40.0650   25.4640 C.3   111  ASN111      0.1688
    156  C         58.9840   41.2800   25.4950 C.2   111  ASN111      0.2292
    157  O         60.1660   41.1630   25.8300 O.2   111  ASN111     -0.2864
    158  CB        58.0070   39.4880   24.0400 C.3   111  ASN111      0.1181
    159  CG        57.4680   38.0660   24.0080 C.2   111  ASN111      0.2629
    160  OD1       57.8500   37.2330   24.8270 O.2   111  ASN111     -0.2716
    161  ND2       56.6000   37.7730   23.0450 N.am  111  ASN111     -0.0877
    162  N         59.9250   42.1480   28.8620 N.3   114  GLY114     -0.1210
    163  CA        60.7860   41.0990   29.3670 C.3   114  GLY114      0.1956
    164  C         62.2190   41.1320   28.8600 C.2   114  GLY114      0.2611
    165  O         63.0790   40.4350   29.4000 O.2   114  GLY114     -0.2717
    166  N         62.4940   41.9490   27.8480 N.am  115  ASP115     -0.1973
    167  CA        63.8300   42.0220   27.2600 C.3   115  ASP115      0.1709
    168  C         64.8840   42.7100   28.1220 C.2   115  ASP115      0.2293
    169  O         65.9770   42.1830   28.3130 O.2   115  ASP115     -0.2864
    170  CB        63.7730   42.7510   25.9200 C.3   115  ASP115      0.1436
    171  CG        65.0710   42.6590   25.1600 C.2   115  ASP115      0.3671
    172  OD1       65.2820   41.6310   24.4910 O.co2 115  ASP115     -0.2456
    173  OD2       65.8890   43.6000   25.2460 O.co2 115  ASP115     -0.2456
    174  N         47.7130   35.8030   30.6290 N.3   146  THR146     -0.1218
    175  CA        48.7950   36.4700   29.9070 C.3   146  THR146      0.1862
    176  C         49.0440   37.8480   30.5150 C.2   146  THR146      0.2287
    177  O         50.1770   38.3100   30.5800 O.2   146  THR146     -0.2866
    178  CB        48.4650   36.6570   28.4110 C.3   146  THR146      0.1770
    179  OG1       48.1550   35.3930   27.8190 O.3   146  THR146     -0.2211
    180  CG2       49.6560   37.2430   27.6770 C.3   146  THR146      0.0375
    181  N         51.1600   37.4100   33.5990 N.3   149  TRP149     -0.1241
    182  CA        52.5530   37.1400   33.2830 C.3   149  TRP149      0.1605
    183  C         53.2170   38.4740   32.9300 C.2   149  TRP149      0.2264
    184  O         54.1560   38.8870   33.5860 O.2   149  TRP149     -0.2867
    185  CB        52.6320   36.1560   32.1190 C.3   149  TRP149      0.0550
    186  CG        53.9710   36.0660   31.4960 C.ar  149  TRP149      0.0003
    187  CD1       55.1310   35.6630   32.0880 C.ar  149  TRP149      0.0946
    188  CD2       54.3050   36.4290   30.1600 C.ar  149  TRP149      0.0152
    189  NE1       56.1710   35.7530   31.1960 N.ar  149  TRP149     -0.2442
    190  CE2       55.6930   36.2160   30.0020 C.ar  149  TRP149      0.0810
    191  CE3       53.5610   36.9080   29.0710 C.ar  149  TRP149      0.0012
    192  CZ2       56.3580   36.4780   28.8030 C.ar  149  TRP149      0.0191
    193  CZ3       54.2210   37.1670   27.8810 C.ar  149  TRP149      0.0001
    194  CH2       55.6090   36.9500   27.7550 C.ar  149  TRP149      0.0015
    195  N         56.7170   40.6880   34.5230 N.3   153  ASN153     -0.1240
    196  CA        57.9080   41.2750   33.9280 C.3   153  ASN153      0.1653
    197  C         58.0110   42.7780   34.2260 C.2   153  ASN153      0.2266
    198  O         59.1140   43.2970   34.4460 O.2   153  ASN153     -0.2867
    199  CB        57.9560   41.0430   32.4070 C.3   153  ASN153      0.1155
    200  CG        58.2110   39.5700   32.0330 C.2   153  ASN153      0.2627
    201  OD1       58.9580   38.8620   32.7110 O.2   153  ASN153     -0.2716
    202  ND2       57.6190   39.1250   30.9280 N.am  153  ASN153     -0.0877
    203  N         59.3840   43.0250   37.7900 N.3   156  ARG156     -0.1245
    204  CA        60.7110   42.4280   37.9610 C.3   156  ARG156      0.1563
    205  C         61.8620   43.3720   37.6270 C.2   156  ARG156      0.2260
    206  O         61.8220   44.1010   36.6360 O.2   156  ARG156     -0.2867
    207  CB        60.8300   41.1690   37.1050 C.3   156  ARG156      0.0307
    208  CG        62.0860   40.3640   37.3420 C.3   156  ARG156      0.0489
    209  CD        62.0130   39.0650   36.5770 C.3   156  ARG156      0.2205
    210  NE        63.0810   38.1410   36.9400 N.pl3 156  ARG156     -0.0865
    211  CZ        63.1530   36.8820   36.5140 C.cat 156  ARG156      0.5346
    212  NH1       62.2120   36.4030   35.7050 N.pl3 156  ARG156      0.1354
    213  NH2       64.1550   36.0990   36.9090 N.pl3 156  ARG156      0.1354
    214  N         48.8910   28.6560   36.7190 N.3   184  GLU184     -0.1245
    215  CA        49.8270   29.5190   36.0090 C.3   184  GLU184      0.1567
    216  C         49.6320   30.9730   36.4360 C.2   184  GLU184      0.2260
    217  O         50.6000   31.6640   36.7150 O.2   184  GLU184     -0.2867
    218  CB        49.6550   29.3570   34.4960 C.3   184  GLU184      0.0388
    219  CG        50.9520   29.0700   33.7620 C.3   184  GLU184      0.1160
    220  CD        50.7190   28.6450   32.3290 C.2   184  GLU184      0.3649
    221  OE1       49.9390   27.6860   32.1200 O.co2 184  GLU184     -0.2457
    222  OE2       51.3150   29.2540   31.4050 O.co2 184  GLU184     -0.2457
    223  N         52.5060   33.3100   38.7170 N.3   188  ASP188     -0.1239
    224  CA        53.0530   34.6090   38.3450 C.3   188  ASP188      0.1674
    225  C         52.5990   35.7840   39.2170 C.2   188  ASP188      0.2266
    226  O         53.2920   36.7910   39.2770 O.2   188  ASP188     -0.2867
    227  CB        52.7670   34.9380   36.8840 C.3   188  ASP188      0.1410
    228  CG        53.6260   34.1370   35.9250 C.2   188  ASP188      0.3668
    229  OD1       54.8200   33.9320   36.2300 O.co2 188  ASP188     -0.2456
    230  OD2       53.1170   33.7420   34.8530 O.co2 188  ASP188     -0.2456
    231  N         55.0860   35.7870   42.1870 N.3   191  TRP191     -0.1241
    232  CA        56.3860   36.3210   41.7870 C.3   191  TRP191      0.1605
    233  C         56.3520   37.8450   41.6710 C.2   191  TRP191      0.2264
    234  O         57.3170   38.5330   42.0090 O.2   191  TRP191     -0.2867
    235  CB        56.8450   35.7500   40.4400 C.3   191  TRP191      0.0550
    236  CG        57.5140   34.4100   40.5280 C.ar  191  TRP191      0.0003
    237  CD1       57.0230   33.2100   40.0920 C.ar  191  TRP191      0.0946
    238  CD2       58.7810   34.1310   41.1250 C.ar  191  TRP191      0.0152
    239  NE1       57.9110   32.2040   40.3870 N.ar  191  TRP191     -0.2442
    240  CE2       58.9960   32.7390   41.0260 C.ar  191  TRP191      0.0810
    241  CE3       59.7560   34.9250   41.7470 C.ar  191  TRP191      0.0012
    242  CZ2       60.1480   32.1230   41.5120 C.ar  191  TRP191      0.0191
    243  CZ3       60.9030   34.3110   42.2310 C.ar  191  TRP191      0.0001
    244  CH2       61.0890   32.9190   42.1150 C.ar  191  TRP191      0.0015
@<TRIPOS>BOND
     1    25    23    1
     2    23    24    1
     3    23    22    2
     4    22    21    1
     5    21    20    1
     6    55    54    2
     7    20    19    1
     8     1     2    1
     9    54    53    1
    10     6     8    1
    11     6     7    1
    12     6     5    1
    13    52    53    1
    14    53    56    1
    15    19    16    1
    16    47    48    2
    17    47    46    1
    18     2     5    1
    19     2     3    1
    20    42    44   ar
    21    42    40   ar
    22    44    43   ar
    23    46    45    1
    24    46    49    1
    25    16    15    1
    26    16    17    1
    27     9     3   am
    28     9    10    1
    29    15    11   am
    30    40    39    1
    31    40    41   ar
    32    39    36    1
    33     3     4    2
    34    56    58    1
    35    56    57    1
    36    45    51    1
    37    11    10    1
    38    11    12    2
    39    13    10    1
    40    13    14    1
    41    49    50    1
    42    43    41   ar
    43    57    59    1
    44    17    26   am
    45    17    18    2
    46    26    27    1
    47    36    35    1
    48    36    37    1
    49    35    28   am
    50    37    38    2
    51    72    70   ar
    52    72    73   ar
    53    70    67   ar
    54    31    30    1
    55    31    32    1
    56    51    50    1
    57    64    65    1
    58    64    61    1
    59    73    71   ar
    60    62    61    1
    61    62    63    2
    62    67    65   ar
    63    67    69   ar
    64    65    66   ar
    65    34    32   ar
    66    60    61    1
    67    30    27    1
    68    27    28    1
    69    71    69   ar
    70    69    68   ar
    71    28    29    2
    72    66    68   ar
    73    32    33   ar
    74    88    86   am
    75    85    86    1
    76    85    82    1
    77    83    84    2
    78    83    82    1
    79    86    87    2
    80    74    75    1
    81    82    81    1
    82    81    76   am
    83    89    90    1
    84   109   108    1
    85    79    78    1
    86    76    75    1
    87    76    77    2
    88    75    78    1
    89   132   133    1
    90   132   131    1
    91   111   112    1
    92   133   135   am
    93   133   134    2
    94   113   114    2
    95   113   112    1
    96    90    93    1
    97    90    91    1
    98    78    80    1
    99   112   115    1
   100   131   128    1
   101   101   100    1
   102   101   102    1
   103   110   108    1
   104    99    98    1
   105   108   105    1
   106   104   102   am
   107   104   105    1
   108   100    96   am
   109    94    91   am
   110    94    95    1
   111   107   106    2
   112    91    92    2
   113   102   103    2
   114   105   106    1
   115    96    95    1
   116    96    97    2
   117    98    95    1
   118   115   116    1
   119   115   117    1
   120   128   129    1
   121   128   127    1
   122   129   130    2
   123   127   120   am
   124   161   159   am
   125   120   119    1
   126   120   121    2
   127   122   119    1
   128   122   123    1
   129   118   119    1
   130   148   149   ar
   131   148   146   ar
   132   149   147   ar
   133   146   143   ar
   134   147   145   ar
   135   143   145   ar
   136   143   141   ar
   137   145   144   ar
   138   140   141    1
   139   140   137    1
   140   141   142   ar
   141   144   142   ar
   142   159   158    1
   143   159   160    2
   144   158   155    1
   145   125   124   ar
   146   138   139    2
   147   138   137    1
   148   172   171   ar
   149   123   124    1
   150   137   136    1
   151   124   126   ar
   152   171   173   ar
   153   171   170    1
   154   155   156    1
   155   155   154    1
   156   156   157    2
   157   170   167    1
   158   154   152   am
   159   150   151    1
   160   152   151    1
   161   152   153    2
   162   167   166    1
   163   167   168    1
   164   180   178    1
   165   194   193   ar
   166   194   192   ar
   167   179   178    1
   168   166   164   am
   169   193   191   ar
   170   168   169    2
   171   178   175    1
   172   192   190   ar
   173   164   163    1
   174   164   165    2
   175   162   163    1
   176   191   188   ar
   177   175   176    1
   178   175   174    1
   179   190   188   ar
   180   190   189   ar
   181   188   186   ar
   182   176   177    2
   183   202   200   am
   184   189   187   ar
   185   222   220   ar
   186   186   187   ar
   187   186   185    1
   188   200   199    1
   189   200   201    2
   190   185   182    1
   191   221   220   ar
   192   220   219    1
   193   199   196    1
   194   183   182    1
   195   183   184    2
   196   182   181    1
   197   219   218    1
   198   196   197    1
   199   196   195    1
   200   197   198    2
   201   218   215    1
   202   230   228   ar
   203   212   211    1
   204   228   229   ar
   205   228   227    1
   206   215   216    1
   207   215   214    1
   208   216   217    2
   209   211   213    1
   210   211   210    2
   211   209   210    1
   212   209   208    1
   213   206   205    2
   214   227   224    1
   215   207   208    1
   216   207   204    1
   217   205   204    1
   218   203   204    1
   219   224   223    1
   220   224   225    1
   221   225   226    2
   222   237   239   ar
   223   237   236   ar
   224   239   240   ar
   225   235   236    1
   226   235   232    1
   227   236   238   ar
   228   240   238   ar
   229   240   242   ar
   230   238   241   ar
   231   242   244   ar
   232   233   232    1
   233   233   234    2
   234   241   243   ar
   235   232   231    1
   236   244   243   ar
