@<TRIPOS>MOLECULE
tmp/1bk6D01.pdb
 134 128 0 0 0
SMALL
GASTEIGER

@<TRIPOS>ATOM
      1  N         65.5960   44.7210   40.0500 N.3   158  LYS158     -0.1245
      2  CA        65.9750   45.3480   41.3000 C.3   158  LYS158      0.1561
      3  C         67.2250   46.1590   41.0760 C.2   158  LYS158      0.2260
      4  O         67.6310   46.9290   41.9430 O.2   158  LYS158     -0.2867
      5  CB        66.1930   44.2960   42.3890 C.3   158  LYS158      0.0271
      6  CG        66.2400   44.8800   43.7850 C.3   158  LYS158      0.0035
      7  CD        66.2500   43.7990   44.8530 C.3   158  LYS158      0.0206
      8  CE        67.4890   42.9350   44.7730 C.3   158  LYS158      0.1093
      9  NZ        67.4400   41.8850   45.8250 N.3   158  LYS158     -0.1314
     10  N         60.9160   38.5070   52.3810 N.3   237  ASN237     -0.1240
     11  CA        61.2520   39.9220   52.1920 C.3   237  ASN237      0.1653
     12  C         60.5800   40.8350   53.1900 C.2   237  ASN237      0.2266
     13  O         61.1500   41.8530   53.5780 O.2   237  ASN237     -0.2867
     14  CB        60.8840   40.4230   50.7970 C.3   237  ASN237      0.1155
     15  CG        61.7970   39.9010   49.7340 C.2   237  ASN237      0.2627
     16  OD1       62.9860   39.6950   49.9710 O.2   237  ASN237     -0.2716
     17  ND2       61.2640   39.7230   48.5340 N.am  237  ASN237     -0.0877
     18  N         59.6390   40.2090   56.4720 N.3   239  VAL239     -0.1231
     19  CA        60.2560   40.1610   57.7990 C.3   239  VAL239      0.1692
     20  C         61.6110   40.8630   57.8230 C.2   239  VAL239      0.2593
     21  O         62.3140   40.8780   58.8370 O.2   239  VAL239     -0.2718
     22  CB        60.4070   38.7060   58.3060 C.3   239  VAL239      0.0266
     23  CG1       59.0370   38.1040   58.5370 C.3   239  VAL239      0.0020
     24  CG2       61.1980   37.8710   57.3080 C.3   239  VAL239      0.0020
     25  N         61.9690   41.4340   56.6800 N.am  240  THR240     -0.1939
     26  CA        63.1990   42.1930   56.5180 C.3   240  THR240      0.2028
     27  C         63.0010   43.5570   57.1580 C.2   240  THR240      0.2643
     28  O         63.9530   44.1860   57.5890 O.2   240  THR240     -0.2714
     29  CB        63.5230   42.3810   55.0200 C.3   240  THR240      0.1808
     30  OG1       64.3230   41.2860   54.5720 O.3   240  THR240     -0.2208
     31  CG2       64.2130   43.7190   54.7570 C.3   240  THR240      0.0379
     32  N         61.7490   44.0050   57.2050 N.am  241  GLY241     -0.1939
     33  CA        61.4260   45.2940   57.7960 C.3   241  GLY241      0.2014
     34  C         61.4790   45.3380   59.3140 C.2   241  GLY241      0.2639
     35  O         61.8580   44.3670   59.9710 O.2   241  GLY241     -0.2714
     36  N         61.0800   46.4720   59.8780 N.am  242  ASN242     -0.1958
     37  CA        61.0960   46.6580   61.3210 C.3   242  ASN242      0.1819
     38  C         60.2170   45.6660   62.1150 C.2   242  ASN242      0.2621
     39  O         59.4120   44.9270   61.5500 O.2   242  ASN242     -0.2715
     40  CB        60.7070   48.1060   61.6520 C.3   242  ASN242      0.1195
     41  CG        59.2790   48.4370   61.2630 C.2   242  ASN242      0.2630
     42  OD1       58.3290   47.8550   61.7940 O.2   242  ASN242     -0.2716
     43  ND2       59.1190   49.3780   60.3380 N.am  242  ASN242     -0.0877
     44  N         60.3920   45.6660   63.4330 N.am  243  ASP243     -0.1971
     45  CA        59.6560   44.7800   64.3280 C.3   243  ASP243      0.1709
     46  C         58.1390   44.7820   64.1170 C.2   243  ASP243      0.2293
     47  O         57.5180   43.7150   64.0880 O.2   243  ASP243     -0.2864
     48  CB        59.9670   45.1370   65.7850 C.3   243  ASP243      0.1436
     49  CG        61.4540   45.0640   66.1040 C.2   243  ASP243      0.3671
     50  OD1       62.2540   44.7260   65.2030 O.co2 243  ASP243     -0.2456
     51  OD2       61.8230   45.3490   67.2610 O.co2 243  ASP243     -0.2456
     52  N         57.2170   43.0780   61.0250 N.3   246  THR246     -0.1218
     53  CA        57.4680   41.6540   61.2020 C.3   246  THR246      0.1862
     54  C         56.4110   40.9730   62.0850 C.2   246  THR246      0.2287
     55  O         56.1380   39.7760   61.9190 O.2   246  THR246     -0.2866
     56  CB        58.8710   41.4060   61.7800 C.3   246  THR246      0.1770
     57  OG1       59.8560   41.8300   60.8310 O.3   246  THR246     -0.2211
     58  CG2       59.0790   39.9370   62.0610 C.3   246  THR246      0.0375
     59  N         66.5080   31.3780   56.3700 N.3   275  TRP275     -0.1241
     60  CA        66.7680   32.7830   56.1200 C.3   275  TRP275      0.1605
     61  C         65.6440   33.6160   56.7440 C.2   275  TRP275      0.2264
     62  O         65.9080   34.5680   57.4860 O.2   275  TRP275     -0.2867
     63  CB        66.8150   33.0180   54.6160 C.3   275  TRP275      0.0550
     64  CG        66.8520   34.4530   54.2130 C.ar  275  TRP275      0.0003
     65  CD1       67.8310   35.3670   54.5030 C.ar  275  TRP275      0.0946
     66  CD2       65.9050   35.1320   53.3840 C.ar  275  TRP275      0.0152
     67  NE1       67.5490   36.5680   53.8960 N.ar  275  TRP275     -0.2442
     68  CE2       66.3750   36.4520   53.2010 C.ar  275  TRP275      0.0810
     69  CE3       64.7040   34.7510   52.7700 C.ar  275  TRP275      0.0012
     70  CZ2       65.6850   37.3940   52.4300 C.ar  275  TRP275      0.0191
     71  CZ3       64.0180   35.6880   51.9990 C.ar  275  TRP275      0.0001
     72  CH2       64.5120   36.9940   51.8350 C.ar  275  TRP275      0.0015
     73  N         65.6600   33.5120   60.4570 N.3   278  SER278     -0.1202
     74  CA        66.7550   34.3170   61.0000 C.3   278  SER278      0.2020
     75  C         66.4450   35.8160   61.0880 C.2   278  SER278      0.2619
     76  O         66.9320   36.4860   62.0090 O.2   278  SER278     -0.2717
     77  CB        68.0610   34.1110   60.2050 C.3   278  SER278      0.2103
     78  OG        68.1010   34.8930   59.0270 O.3   278  SER278     -0.2182
     79  N         65.6640   36.3530   60.1410 N.am  279  ASN279     -0.1960
     80  CA        65.3110   37.7740   60.1930 C.3   279  ASN279      0.1819
     81  C         64.2320   38.0140   61.2450 C.2   279  ASN279      0.2621
     82  O         63.9280   39.1620   61.5800 O.2   279  ASN279     -0.2715
     83  CB        64.8040   38.3040   58.8410 C.3   279  ASN279      0.1195
     84  CG        65.9190   38.6030   57.8670 C.2   279  ASN279      0.2630
     85  OD1       66.8580   39.3300   58.1820 O.2   279  ASN279     -0.2716
     86  ND2       65.8100   38.0600   56.6690 N.am  279  ASN279     -0.0877
     87  N         63.6300   36.9350   61.7420 N.am  280  ILE280     -0.1977
     88  CA        62.6170   37.0670   62.7820 C.3   280  ILE280      0.1596
     89  C         63.3030   36.9540   64.1440 C.2   280  ILE280      0.2287
     90  O         62.8410   37.5350   65.1260 O.2   280  ILE280     -0.2864
     91  CB        61.5190   35.9950   62.6570 C.3   280  ILE280      0.0276
     92  CG1       60.8090   36.1660   61.3100 C.3   280  ILE280      0.0022
     93  CG2       60.5420   36.1060   63.8210 C.3   280  ILE280      0.0022
     94  CD1       59.6380   35.2420   61.0860 C.3   280  ILE280      0.0001
     95  N         65.9950   38.1810   64.6290 N.3   282  ALA282     -0.1231
     96  CA        66.8050   39.3890   64.6450 C.3   282  ALA282      0.1694
     97  C         65.9570   40.4980   65.2530 C.2   282  ALA282      0.2592
     98  O         66.4080   41.6330   65.4010 O.2   282  ALA282     -0.2718
     99  CB        67.2020   39.7640   63.2440 C.3   282  ALA282      0.0304
    100  N         64.7200   40.1490   65.5990 N.am  283  GLY283     -0.1957
    101  CA        63.7980   41.1070   66.1810 C.3   283  GLY283      0.1869
    102  C         63.8910   41.1740   67.6910 C.2   283  GLY283      0.2309
    103  O         64.9030   40.7650   68.2640 O.2   283  GLY283     -0.2863
    104  N         72.5630   29.5600   56.7960 N.3   314  GLU314     -0.1245
    105  CA        71.3720   30.2690   57.2200 C.3   314  GLU314      0.1567
    106  C         70.9310   29.8470   58.6210 C.2   314  GLU314      0.2260
    107  O         70.5890   30.6950   59.4490 O.2   314  GLU314     -0.2867
    108  CB        70.2600   30.0150   56.2070 C.3   314  GLU314      0.0388
    109  CG        69.7620   31.2700   55.5460 C.3   314  GLU314      0.1160
    110  CD        70.8720   32.0590   54.8920 C.2   314  GLU314      0.3649
    111  OE1       71.5500   31.5090   54.0120 O.co2 314  GLU314     -0.2457
    112  OE2       71.0650   33.2340   55.2580 O.co2 314  GLU314     -0.2457
    113  N         72.8850   31.6700   61.2560 N.3   317  TRP317     -0.1241
    114  CA        72.4120   33.0110   61.5790 C.3   317  TRP317      0.1605
    115  C         71.2290   32.9590   62.5270 C.2   317  TRP317      0.2264
    116  O         71.2550   33.5650   63.5930 O.2   317  TRP317     -0.2867
    117  CB        71.9950   33.7800   60.3290 C.3   317  TRP317      0.0550
    118  CG        73.1190   34.3370   59.5550 C.ar  317  TRP317      0.0003
    119  CD1       73.7910   33.7380   58.5310 C.ar  317  TRP317      0.0946
    120  CD2       73.7380   35.6110   59.7510 C.ar  317  TRP317      0.0152
    121  NE1       74.7950   34.5680   58.0770 N.ar  317  TRP317     -0.2442
    122  CE2       74.7920   35.7170   58.8150 C.ar  317  TRP317      0.0810
    123  CE3       73.5190   36.6730   60.6460 C.ar  317  TRP317      0.0012
    124  CZ2       75.6010   36.8450   58.7260 C.ar  317  TRP317      0.0191
    125  CZ3       74.3330   37.8000   60.5600 C.ar  317  TRP317      0.0001
    126  CH2       75.3670   37.8710   59.6090 C.ar  317  TRP317      0.0015
    127  N         71.4670   34.8140   65.9310 N.3   321  ASN321     -0.1240
    128  CA        70.6910   36.0010   66.2620 C.3   321  ASN321      0.1653
    129  C         69.8520   35.7400   67.5130 C.2   321  ASN321      0.2266
    130  O         69.5850   36.6520   68.2940 O.2   321  ASN321     -0.2867
    131  CB        69.7750   36.4070   65.1040 C.3   321  ASN321      0.1155
    132  CG        70.5410   36.7940   63.8600 C.2   321  ASN321      0.2627
    133  OD1       71.4950   37.5540   63.9190 O.2   321  ASN321     -0.2716
    134  ND2       70.1060   36.2930   62.7200 N.am  321  ASN321     -0.0877
@<TRIPOS>BOND
     1     1     2    1
     2     3     2    1
     3     3     4    2
     4     2     5    1
     5     5     6    1
     6     6     7    1
     7     8     7    1
     8     8     9    1
     9    17    15   am
    10    15    16    2
    11    15    14    1
    12    14    11    1
    13    72    71   ar
    14    72    70   ar
    15    71    69   ar
    16    11    10    1
    17    11    12    1
    18    70    68   ar
    19    69    66   ar
    20    12    13    2
    21    68    66   ar
    22    68    67   ar
    23    66    64   ar
    24    67    65   ar
    25   111   110   ar
    26    64    65   ar
    27    64    63    1
    28    30    29    1
    29    63    60    1
    30    31    29    1
    31   110   112   ar
    32   110   109    1
    33    29    26    1
    34   109   108    1
    35    60    59    1
    36    60    61    1
    37   108   105    1
    38    18    19    1
    39    26    25    1
    40    26    27    1
    41    86    84   am
    42    25    20   am
    43    61    62    2
    44   104   105    1
    45    27    32   am
    46    27    28    2
    47    32    33    1
    48   105   106    1
    49    24    22    1
    50    33    34    1
    51    19    20    1
    52    19    22    1
    53    20    21    2
    54    84    85    2
    55    84    83    1
    56   121   119   ar
    57   121   122   ar
    58    22    23    1
    59   119   118   ar
    60   106   107    2
    61   124   122   ar
    62   124   126   ar
    63   122   120   ar
    64    83    80    1
    65    78    77    1
    66    34    36   am
    67    34    35    2
    68   118   120   ar
    69   118   117    1
    70   126   125   ar
    71   120   123   ar
    72    36    37    1
    73    79    80    1
    74    79    75   am
    75    80    81    1
    76    77    74    1
    77   117   114    1
    78    43    41   am
    79    73    74    1
    80   125   123   ar
    81    57    56    1
    82    74    75    1
    83    52    53    1
    84    94    92    1
    85    75    76    2
    86    53    56    1
    87    53    54    1
    88    81    82    2
    89    81    87   am
    90   113   114    1
    91    41    40    1
    92    41    42    2
    93    92    91    1
    94    37    40    1
    95    37    38    1
    96    39    38    2
    97   114   115    1
    98    87    88    1
    99    56    58    1
   100    55    54    2
   101    38    44   am
   102   115   116    2
   103    91    88    1
   104    91    93    1
   105   134   132   am
   106    88    89    1
   107    99    96    1
   108    44    45    1
   109   132   133    2
   110   132   131    1
   111    47    46    2
   112    46    45    1
   113    89    90    2
   114    45    48    1
   115    95    96    1
   116    96    97    1
   117   131   128    1
   118    50    49   ar
   119    97    98    2
   120    97   100   am
   121   100   101    1
   122    48    49    1
   123   127   128    1
   124    49    51   ar
   125   101   102    1
   126   128   129    1
   127   129   130    2
   128   102   103    2
