@<TRIPOS>MOLECULE
tmp/1bk9A00.pdb
 126 124 0 0 0
SMALL
GASTEIGER

@<TRIPOS>ATOM
      1  N         12.1810   59.2730   -6.9300 N.3     2  LEU2       -0.1245
      2  CA        12.7810   59.8760   -5.7650 C.3     2  LEU2        0.1561
      3  C         11.8280   60.3270   -4.6920 C.2     2  LEU2        0.2260
      4  O         12.1190   60.2190   -3.5010 O.2     2  LEU2       -0.2867
      5  CB        13.6280   61.0030   -6.2490 C.3     2  LEU2        0.0270
      6  CG        14.9090   60.4980   -6.9320 C.3     2  LEU2        0.0019
      7  CD1       15.6860   61.7250   -7.4300 C.3     2  LEU2        0.0001
      8  CD2       15.7690   59.6740   -5.9670 C.3     2  LEU2        0.0001
      9  N         11.2690   57.2950   -2.7260 N.3     5  PHE5       -0.1241
     10  CA        12.3960   57.0120   -1.8360 C.3     5  PHE5        0.1605
     11  C         12.2690   57.9030   -0.5890 C.2     5  PHE5        0.2264
     12  O         12.3950   57.3990    0.5350 O.2     5  PHE5       -0.2867
     13  CB        13.7500   57.2720   -2.5740 C.3     5  PHE5        0.0534
     14  CG        15.0310   56.9780   -1.7740 C.ar    5  PHE5       -0.0203
     15  CD1       15.1140   55.9280   -0.8440 C.ar    5  PHE5       -0.0042
     16  CD2       16.1290   57.7970   -1.9580 C.ar    5  PHE5       -0.0042
     17  CE1       16.2920   55.7310   -0.1270 C.ar    5  PHE5       -0.0003
     18  CE2       17.2960   57.5820   -1.2290 C.ar    5  PHE5       -0.0003
     19  CZ        17.3810   56.5510   -0.3150 C.ar    5  PHE5       -0.0000
     20  N         15.4550   64.3510    2.6870 N.3    18  MET18      -0.1245
     21  CA        15.9850   65.6140    2.2220 C.3    18  MET18       0.1570
     22  C         16.5990   66.3540    3.3900 C.2    18  MET18       0.2261
     23  O         17.6050   67.0120    3.1990 O.2    18  MET18      -0.2867
     24  CB        14.8780   66.4760    1.5970 C.3    18  MET18       0.0387
     25  CG        15.4160   67.6600    0.8030 C.3    18  MET18       0.0595
     26  SD        15.4690   67.3740   -0.9830 S.3    18  MET18      -0.1393
     27  CE        16.6250   66.0560   -1.2300 C.3    18  MET18       0.0692
     28  N         19.7000   63.2050    4.8480 N.3    21  TYR21      -0.1227
     29  CA        20.5370   62.3310    4.0420 C.3    21  TYR21       0.1736
     30  C         20.8670   62.9310    2.6890 C.2    21  TYR21       0.2596
     31  O         21.2610   62.1850    1.7760 O.2    21  TYR21      -0.2718
     32  CB        19.7960   60.9890    3.8490 C.3    21  TYR21       0.0548
     33  CG        19.5030   60.2830    5.1460 C.ar   21  TYR21      -0.0200
     34  CD1       20.5470   59.7080    5.8390 C.ar   21  TYR21      -0.0009
     35  CD2       18.2300   60.2740    5.6590 C.ar   21  TYR21      -0.0009
     36  CE1       20.3370   59.1200    7.0660 C.ar   21  TYR21       0.0417
     37  CE2       18.0160   59.6920    6.8820 C.ar   21  TYR21       0.0417
     38  CZ        19.0690   59.1230    7.5680 C.ar   21  TYR21       0.1957
     39  OH        18.8620   58.5230    8.7970 O.3    21  TYR21      -0.2866
     40  N         20.7260   64.2510    2.4770 N.am   22  SER22      -0.1952
     41  CA        20.9760   64.7710    1.1400 C.3    22  SER22       0.1924
     42  C         22.3880   65.3330    0.9460 C.2    22  SER22       0.2314
     43  O         22.8060   65.6020   -0.1910 O.2    22  SER22      -0.2863
     44  CB        19.9050   65.8570    0.8290 C.3    22  SER22       0.2116
     45  OG        19.8750   66.7990    1.9040 O.3    22  SER22      -0.2180
     46  N         28.8030   60.1330    0.2170 N.3    27  TYR27      -0.1241
     47  CA        27.8100   59.5070   -0.6330 C.3    27  TYR27       0.1605
     48  C         26.3580   59.8650   -0.3430 C.2    27  TYR27       0.2264
     49  O         25.5550   59.5960   -1.2400 O.2    27  TYR27      -0.2867
     50  CB        27.9630   57.9400   -0.5640 C.3    27  TYR27       0.0534
     51  CG        29.2090   57.4880   -1.3070 C.ar   27  TYR27      -0.0201
     52  CD1       29.1490   57.3190   -2.6840 C.ar   27  TYR27      -0.0009
     53  CD2       30.3990   57.3210   -0.6190 C.ar   27  TYR27      -0.0009
     54  CE1       30.2840   56.9900   -3.4080 C.ar   27  TYR27       0.0417
     55  CE2       31.5350   57.0000   -1.3430 C.ar   27  TYR27       0.0417
     56  CZ        31.4790   56.8390   -2.7180 C.ar   27  TYR27       0.1957
     57  OH        32.6430   56.5570   -3.4070 O.3    27  TYR27      -0.2866
     58  N         23.9240   61.9310   -0.8690 N.3    29  GLY29      -0.1210
     59  CA        23.6600   63.0630   -1.7190 C.3    29  GLY29       0.1956
     60  C         23.7830   62.5780   -3.1540 C.2    29  GLY29       0.2612
     61  O         23.9460   61.3720   -3.3650 O.2    29  GLY29      -0.2717
     62  N         23.7000   63.4230   -4.1610 N.am   30  TRP30      -0.1962
     63  CA        23.7700   62.9720   -5.5320 C.3    30  TRP30       0.1771
     64  C         25.2010   62.6080   -5.8340 C.2    30  TRP30       0.2620
     65  O         26.0970   63.3410   -5.4310 O.2    30  TRP30      -0.2715
     66  CB        23.3080   64.0900   -6.4870 C.3    30  TRP30       0.0590
     67  CG        22.9110   63.5100   -7.8390 C.ar   30  TRP30       0.0006
     68  CD1       23.7760   63.4890   -8.9120 C.ar   30  TRP30       0.0946
     69  CD2       21.6960   62.9180   -8.1140 C.ar   30  TRP30       0.0152
     70  NE1       23.0970   62.8740   -9.8640 N.ar   30  TRP30      -0.2442
     71  CE2       21.8670   62.5210   -9.4360 C.ar   30  TRP30       0.0810
     72  CE3       20.5140   62.6890   -7.4330 C.ar   30  TRP30       0.0012
     73  CZ2       20.8430   61.8800  -10.1040 C.ar   30  TRP30       0.0191
     74  CZ3       19.4950   62.0560   -8.0980 C.ar   30  TRP30       0.0001
     75  CH2       19.6560   61.6570   -9.4140 C.ar   30  TRP30       0.0015
     76  N         25.4220   61.4750   -6.5060 N.am   31  GLY31      -0.1954
     77  CA        26.7440   61.0220   -6.9020 C.3    31  GLY31       0.1869
     78  C         27.6330   60.7520   -5.6980 C.2    31  GLY31       0.2309
     79  O         27.1250   60.4680   -4.6040 O.2    31  GLY31      -0.2863
     80  N         24.2620   54.8230    1.8370 N.3    44  CYS44      -0.1235
     81  CA        24.0610   55.5990    0.6170 C.3    44  CYS44       0.1677
     82  C         24.9030   55.1110   -0.5370 C.2    44  CYS44       0.2270
     83  O         24.4590   55.1150   -1.6890 O.2    44  CYS44      -0.2867
     84  CB        24.3890   57.0620    0.8340 C.3    44  CYS44       0.0956
     85  SG        23.2510   57.8350    1.9920 S.3    44  CYS44      -0.0801
     86  N         23.2610   52.1480   -1.9770 N.3    47  HIS47      -0.1226
     87  CA        22.0870   52.6020   -2.7120 C.3    47  HIS47       0.1752
     88  C         22.4810   53.1400   -4.0860 C.2    47  HIS47       0.2596
     89  O         21.7610   52.8920   -5.0670 O.2    47  HIS47      -0.2718
     90  CB        21.3530   53.6900   -1.8730 C.3    47  HIS47       0.0759
     91  CG        20.0610   54.1960   -2.5020 C.ar   47  HIS47       0.0818
     92  ND1       19.9680   55.3280   -3.2030 N.ar   47  HIS47      -0.2268
     93  CD2       18.8770   53.5100   -2.4860 C.ar   47  HIS47       0.1154
     94  CE1       18.7250   55.3430   -3.6210 C.ar   47  HIS47       0.1986
     95  NE2       18.0950   54.2800   -3.1990 N.ar   47  HIS47      -0.2212
     96  N         23.5890   53.9080   -4.1780 N.am   48  ASP48      -0.1974
     97  CA        24.1570   54.3810   -5.4570 C.3    48  ASP48       0.1709
     98  C         24.5650   53.2570   -6.3770 C.2    48  ASP48       0.2293
     99  O         24.2550   53.2880   -7.5720 O.2    48  ASP48      -0.2864
    100  CB        25.4050   55.2250   -5.2510 C.3    48  ASP48       0.1436
    101  CG        25.1040   56.6500   -4.7930 C.2    48  ASP48       0.3671
    102  OD1       23.9570   57.1130   -4.9380 O.co2  48  ASP48      -0.2456
    103  OD2       26.0440   57.2850   -4.2840 O.co2  48  ASP48      -0.2456
    104  N         21.3030   51.4370   -7.6930 N.3    51  TYR51      -0.1241
    105  CA        20.7460   52.2390   -8.7740 C.3    51  TYR51       0.1605
    106  C         21.5860   52.1180  -10.0240 C.2    51  TYR51       0.2264
    107  O         21.0210   51.9610  -11.1070 O.2    51  TYR51      -0.2867
    108  CB        20.6950   53.7070   -8.4410 C.3    51  TYR51       0.0534
    109  CG        19.4450   54.1940   -7.7470 C.ar   51  TYR51      -0.0201
    110  CD1       18.5440   53.3560   -7.1230 C.ar   51  TYR51      -0.0009
    111  CD2       19.2350   55.5540   -7.7440 C.ar   51  TYR51      -0.0009
    112  CE1       17.4390   53.9060   -6.4890 C.ar   51  TYR51       0.0417
    113  CE2       18.1510   56.1100   -7.1230 C.ar   51  TYR51       0.0417
    114  CZ        17.2570   55.2830   -6.4880 C.ar   51  TYR51       0.1957
    115  OH        16.2100   55.8750   -5.7760 O.3    51  TYR51      -0.2866
    116  N         19.1850   52.9670    6.8190 N.3    96  PHE96      -0.1241
    117  CA        19.2080   54.2440    7.5520 C.3    96  PHE96       0.1605
    118  C         18.6530   54.0860    8.9570 C.2    96  PHE96       0.2264
    119  O         19.2810   54.4770    9.9430 O.2    96  PHE96      -0.2867
    120  CB        18.3800   55.3160    6.8530 C.3    96  PHE96       0.0534
    121  CG        18.9570   55.7230    5.5110 C.ar   96  PHE96      -0.0203
    122  CD1       20.3440   55.7630    5.3100 C.ar   96  PHE96      -0.0042
    123  CD2       18.0820   56.0870    4.5080 C.ar   96  PHE96      -0.0042
    124  CE1       20.8350   56.1840    4.0890 C.ar   96  PHE96      -0.0003
    125  CE2       18.5960   56.5030    3.2970 C.ar   96  PHE96      -0.0003
    126  CZ        19.9640   56.5560    3.0840 C.ar   96  PHE96      -0.0000
@<TRIPOS>BOND
     1   107   106    2
     2    73    71   ar
     3    73    75   ar
     4   106   105    1
     5    70    71   ar
     6    70    68   ar
     7    71    69   ar
     8    75    74   ar
     9    68    67   ar
    10   105   108    1
    11   105   104    1
    12   108   109    1
    13    69    67   ar
    14    69    72   ar
    15    74    72   ar
    16    67    66    1
    17   109   111   ar
    18   109   110   ar
    19   111   113   ar
    20    99    98    2
    21     7     6    1
    22   110   112   ar
    23   113   114   ar
    24     6     5    1
    25     6     8    1
    26     1     2    1
    27    77    76    1
    28    77    78    1
    29    76    64   am
    30   112   114   ar
    31   114   115    1
    32    66    63    1
    33    98    97    1
    34     5     2    1
    35    64    63    1
    36    64    65    2
    37     2     3    1
    38    78    79    2
    39    63    62    1
    40    97   100    1
    41    97    96    1
    42   100   101    1
    43    89    88    2
    44   102   101   ar
    45   101   103   ar
    46     3     4    2
    47    96    88   am
    48    62    60   am
    49    88    87    1
    50    94    92   ar
    51    94    95   ar
    52    54    56   ar
    53    54    52   ar
    54    57    56    1
    55    61    60    2
    56    92    91   ar
    57    95    93   ar
    58    60    59    1
    59     9    10    1
    60    56    55   ar
    61    87    86    1
    62    87    90    1
    63    52    51   ar
    64    13    10    1
    65    13    14    1
    66    91    93   ar
    67    91    90    1
    68    16    14   ar
    69    16    18   ar
    70    10    11    1
    71    14    15   ar
    72    59    58    1
    73    83    82    2
    74    55    53   ar
    75    51    53   ar
    76    51    50    1
    77    49    48    2
    78    27    26    1
    79    18    19   ar
    80    26    25    1
    81    15    17   ar
    82    47    50    1
    83    47    48    1
    84    47    46    1
    85    11    12    2
    86    82    81    1
    87    19    17   ar
    88    43    42    2
    89    81    84    1
    90    81    80    1
    91    25    24    1
    92    44    41    1
    93    44    45    1
    94    84    85    1
    95    42    41    1
    96    41    40    1
    97    24    21    1
    98    31    30    2
    99    21    20    1
   100    21    22    1
   101    40    30   am
   102    30    29    1
   103   126   125   ar
   104   126   124   ar
   105    23    22    2
   106   125   123   ar
   107    32    29    1
   108    32    33    1
   109    29    28    1
   110   124   122   ar
   111   123   121   ar
   112    33    35   ar
   113    33    34   ar
   114   122   121   ar
   115   121   120    1
   116    35    37   ar
   117    34    36   ar
   118   116   117    1
   119   120   117    1
   120    37    38   ar
   121    36    38   ar
   122   117   118    1
   123    38    39    1
   124   118   119    2
