@<TRIPOS>MOLECULE
tmp/1bkeA06.pdb
 106 100 0 0 0
SMALL
GASTEIGER

@<TRIPOS>ATOM
      1  N         31.3150    5.1980   38.0760 N.3   112  LEU112     -0.1245
      2  CA        31.9070    6.4140   38.6190 C.3   112  LEU112      0.1561
      3  C         30.8140    7.2490   39.2940 C.2   112  LEU112      0.2260
      4  O         29.8340    7.6350   38.6590 O.2   112  LEU112     -0.2867
      5  CB        32.5760    7.2120   37.4970 C.3   112  LEU112      0.0270
      6  CG        33.8720    7.9380   37.8610 C.3   112  LEU112      0.0019
      7  CD1       34.9280    6.9200   38.2430 C.3   112  LEU112      0.0001
      8  CD2       34.3460    8.7900   36.6910 C.3   112  LEU112      0.0001
      9  N         37.6650    8.4340   33.0770 N.3   139  ILE139     -0.1245
     10  CA        36.7970    8.3460   31.8980 C.3   139  ILE139      0.1561
     11  C         37.4850    7.6120   30.7580 C.2   139  ILE139      0.2260
     12  O         36.8600    6.8240   30.0460 O.2   139  ILE139     -0.2867
     13  CB        36.4090    9.7370   31.3450 C.3   139  ILE139      0.0252
     14  CG1       35.8750   10.6350   32.4580 C.3   139  ILE139      0.0019
     15  CG2       35.3740    9.5800   30.2480 C.3   139  ILE139      0.0019
     16  CD1       35.1530    9.8990   33.5810 C.3   139  ILE139      0.0001
     17  N         36.3970    4.1420   28.4480 N.3   143  HIS143     -0.1241
     18  CA        35.9850    4.2590   27.0490 C.3   143  HIS143      0.1621
     19  C         37.2730    4.3330   26.2270 C.2   143  HIS143      0.2264
     20  O         37.6510    5.3950   25.7300 O.2   143  HIS143     -0.2867
     21  CB        35.1420    5.5200   26.8490 C.3   143  HIS143      0.0745
     22  CG        33.9250    5.5730   27.7180 C.ar  143  HIS143      0.0817
     23  ND1       33.8830    6.2930   28.8910 N.ar  143  HIS143     -0.2268
     24  CD2       32.7120    4.9830   27.5940 C.ar  143  HIS143      0.1154
     25  CE1       32.6980    6.1440   29.4550 C.ar  143  HIS143      0.1986
     26  NE2       31.9680    5.3540   28.6880 N.ar  143  HIS143     -0.2212
     27  N         37.1620    5.6620   22.6820 N.3   146  PHE146     -0.1241
     28  CA        36.8300    7.0720   22.4850 C.3   146  PHE146      0.1605
     29  C         38.0010    7.8960   21.9730 C.2   146  PHE146      0.2264
     30  O         39.1040    7.8320   22.5140 O.2   146  PHE146     -0.2867
     31  CB        36.3130    7.7020   23.7690 C.3   146  PHE146      0.0534
     32  CG        35.5080    8.9330   23.5350 C.ar  146  PHE146     -0.0203
     33  CD1       34.3040    8.8630   22.8280 C.ar  146  PHE146     -0.0042
     34  CD2       35.9500   10.1600   24.0020 C.ar  146  PHE146     -0.0042
     35  CE1       33.5370    9.9880   22.5840 C.ar  146  PHE146     -0.0003
     36  CE2       35.1940   11.3100   23.7690 C.ar  146  PHE146     -0.0003
     37  CZ        33.9750   11.2180   23.0510 C.ar  146  PHE146     -0.0000
     38  N         38.0420   13.6070   23.6190 N.3   151  LEU151     -0.1245
     39  CA        37.9180   13.4280   25.0520 C.3   151  LEU151      0.1561
     40  C         38.5330   14.6660   25.6870 C.2   151  LEU151      0.2260
     41  O         37.9760   15.2490   26.6130 O.2   151  LEU151     -0.2867
     42  CB        38.6870   12.1860   25.4920 C.3   151  LEU151      0.0270
     43  CG        38.2190   11.4970   26.7700 C.3   151  LEU151      0.0019
     44  CD1       36.7040   11.5680   26.8740 C.3   151  LEU151      0.0001
     45  CD2       38.6930   10.0440   26.7600 C.3   151  LEU151      0.0001
     46  N         36.2130   17.6190   25.7770 N.3   154  PHE154     -0.1241
     47  CA        35.2020   17.6350   26.8370 C.3   154  PHE154      0.1605
     48  C         35.8450   18.0940   28.1400 C.2   154  PHE154      0.2264
     49  O         35.2610   18.8590   28.9030 O.2   154  PHE154     -0.2867
     50  CB        34.6000   16.2380   27.0210 C.3   154  PHE154      0.0534
     51  CG        33.4880   15.9260   26.0540 C.ar  154  PHE154     -0.0203
     52  CD1       32.2400   16.5170   26.1980 C.ar  154  PHE154     -0.0042
     53  CD2       33.6910   15.0420   24.9990 C.ar  154  PHE154     -0.0042
     54  CE1       31.2110   16.2320   25.3070 C.ar  154  PHE154     -0.0003
     55  CE2       32.6670   14.7510   24.1020 C.ar  154  PHE154     -0.0003
     56  CZ        31.4260   15.3470   24.2570 C.ar  154  PHE154     -0.0000
     57  N         34.6500   21.0070   31.0470 N.3   158  TYR158     -0.1241
     58  CA        34.3880   20.6480   32.4320 C.3   158  TYR158      0.1605
     59  C         35.1110   21.6230   33.3580 C.2   158  TYR158      0.2264
     60  O         34.5800   22.0170   34.3990 O.2   158  TYR158     -0.2867
     61  CB        34.8610   19.2180   32.7100 C.3   158  TYR158      0.0534
     62  CG        33.7550   18.1930   32.6140 C.ar  158  TYR158     -0.0201
     63  CD1       32.7230   18.1600   33.5460 C.ar  158  TYR158     -0.0009
     64  CD2       33.7310   17.2670   31.5790 C.ar  158  TYR158     -0.0009
     65  CE1       31.6960   17.2310   33.4440 C.ar  158  TYR158      0.0417
     66  CE2       32.7070   16.3340   31.4700 C.ar  158  TYR158      0.0417
     67  CZ        31.6940   16.3210   32.4020 C.ar  158  TYR158      0.1957
     68  OH        30.6820   15.3930   32.2890 O.3   158  TYR158     -0.2866
     69  N         26.8310   18.1270   30.1830 N.3   182  LEU182     -0.1231
     70  CA        28.0610   17.5440   29.6820 C.3   182  LEU182      0.1693
     71  C         27.9310   16.0230   29.6630 C.2   182  LEU182      0.2591
     72  O         28.1590   15.3920   28.6360 O.2   182  LEU182     -0.2718
     73  CB        29.2360   17.9650   30.5650 C.3   182  LEU182      0.0284
     74  CG        30.0700   19.1660   30.1100 C.3   182  LEU182      0.0019
     75  CD1       29.2350   20.1330   29.2930 C.3   182  LEU182      0.0001
     76  CD2       30.6220   19.8660   31.3350 C.3   182  LEU182      0.0001
     77  N         27.5580   15.4370   30.7960 N.am  183  ARG183     -0.1980
     78  CA        27.4040   13.9890   30.8760 C.3   183  ARG183      0.1597
     79  C         26.5980   13.4850   29.6830 C.2   183  ARG183      0.2287
     80  O         27.0610   12.6410   28.9160 O.2   183  ARG183     -0.2864
     81  CB        26.6970   13.6000   32.1810 C.3   183  ARG183      0.0334
     82  CG        26.5260   12.0940   32.3940 C.3   183  ARG183      0.0492
     83  CD        25.3940   11.7910   33.3750 C.3   183  ARG183      0.2205
     84  NE        24.1020   12.2800   32.8940 N.pl3 183  ARG183     -0.0865
     85  CZ        23.0940   12.6450   33.6830 C.cat 183  ARG183      0.5346
     86  NH1       23.2220   12.5780   35.0010 N.pl3 183  ARG183      0.1354
     87  NH2       21.9570   13.0780   33.1560 N.pl3 183  ARG183      0.1354
     88  N         28.4590   13.7610   26.3150 N.3   186  GLY186     -0.1210
     89  CA        29.5520   12.8270   26.1240 C.3   186  GLY186      0.1956
     90  C         28.9890   11.4480   25.8630 C.2   186  GLY186      0.2611
     91  O         29.5500   10.6650   25.1020 O.2   186  GLY186     -0.2717
     92  N         27.8680   11.1500   26.5050 N.am  187  LYS187     -0.1979
     93  CA        27.2130    9.8640   26.3280 C.3   187  LYS187      0.1596
     94  C         26.7140    9.7660   24.8850 C.2   187  LYS187      0.2287
     95  O         26.9050    8.7470   24.2160 O.2   187  LYS187     -0.2864
     96  CB        26.0400    9.7330   27.3120 C.3   187  LYS187      0.0298
     97  CG        26.4550    9.4770   28.7630 C.3   187  LYS187      0.0038
     98  CD        25.6880    8.3120   29.3700 C.3   187  LYS187      0.0206
     99  CE        24.3690    8.7610   29.9670 C.3   187  LYS187      0.1093
    100  NZ        23.5550    7.5730   30.3390 N.3   187  LYS187     -0.1314
    101  N         29.6400    9.4640   22.4960 N.3   190  SER190     -0.1217
    102  CA        30.2390    8.1360   22.5180 C.3   190  SER190      0.1889
    103  C         29.3580    7.1620   21.7330 C.2   190  SER190      0.2288
    104  O         29.8440    6.4440   20.8600 O.2   190  SER190     -0.2866
    105  CB        30.4040    7.6350   23.9530 C.3   190  SER190      0.2089
    106  OG        30.3470    6.2150   24.0310 O.3   190  SER190     -0.2183
@<TRIPOS>BOND
     1   104   103    2
     2   103   102    1
     3    29    28    1
     4    29    30    2
     5    28    27    1
     6    28    31    1
     7   101   102    1
     8   102   105    1
     9    35    33   ar
    10    35    37   ar
    11    33    32   ar
    12    37    36   ar
    13    32    31    1
    14    32    34   ar
    15    38    39    1
    16    36    34   ar
    17   105   106    1
    18    55    56   ar
    19    55    53   ar
    20    95    94    2
    21    56    54   ar
    22    94    93    1
    23    53    51   ar
    24    39    42    1
    25    39    40    1
    26    91    90    2
    27    54    52   ar
    28    42    43    1
    29    40    41    2
    30    20    19    2
    31    46    47    1
    32    90    89    1
    33    90    92   am
    34    51    52   ar
    35    51    50    1
    36    89    88    1
    37    19    18    1
    38    93    92    1
    39    93    96    1
    40    45    43    1
    41    43    44    1
    42    47    50    1
    43    47    48    1
    44    21    18    1
    45    21    22    1
    46    18    17    1
    47    96    97    1
    48    24    22   ar
    49    24    26   ar
    50    22    23   ar
    51    48    49    2
    52    72    71    2
    53    26    25   ar
    54    97    98    1
    55    23    25   ar
    56    80    79    2
    57    75    74    1
    58    98    99    1
    59    71    70    1
    60    71    77   am
    61    70    69    1
    62    70    73    1
    63    79    78    1
    64    99   100    1
    65    12    11    2
    66    74    73    1
    67    74    76    1
    68    15    13    1
    69    11    10    1
    70    77    78    1
    71    78    81    1
    72    57    58    1
    73    13    10    1
    74    13    14    1
    75    66    64   ar
    76    66    67   ar
    77    64    62   ar
    78    10     9    1
    79    81    82    1
    80    68    67    1
    81    82    83    1
    82    67    65   ar
    83    58    61    1
    84    58    59    1
    85    14    16    1
    86    62    61    1
    87    62    63   ar
    88    84    83    1
    89    84    85    2
    90    87    85    1
    91    59    60    2
    92    65    63   ar
    93    85    86    1
    94     8     6    1
    95     5     6    1
    96     5     2    1
    97     6     7    1
    98     1     2    1
    99     2     3    1
   100     4     3    2
