@<TRIPOS>MOLECULE
tmp/1bkeA05.pdb
 134 125 0 0 0
SMALL
GASTEIGER

@<TRIPOS>ATOM
      1  N         28.4980    4.5800   14.4610 N.3   196  LYS196     -0.1245
      2  CA        29.0130    4.7180   13.1030 C.3   196  LYS196      0.1561
      3  C         29.8270    3.4960   12.6800 C.2   196  LYS196      0.2260
      4  O         29.6990    3.0070   11.5540 O.2   196  LYS196     -0.2867
      5  CB        29.8890    5.9630   12.9900 C.3   196  LYS196      0.0271
      6  CG        29.1360    7.2050   12.5440 C.3   196  LYS196      0.0035
      7  CD        30.0720    8.3940   12.3880 C.3   196  LYS196      0.0206
      8  CE        29.3650    9.7020   12.7070 C.3   196  LYS196      0.1093
      9  NZ        29.2960   10.6130   11.5320 N.3   196  LYS196     -0.1314
     10  N         24.6550   13.5730    3.6190 N.3   215  ARG215     -0.1231
     11  CA        25.0240   14.4750    4.7090 C.3   215  ARG215      0.1694
     12  C         26.0490   15.5160    4.2730 C.2   215  ARG215      0.2591
     13  O         25.9300   16.6920    4.6090 O.2   215  ARG215     -0.2718
     14  CB        25.5680   13.6820    5.9000 C.3   215  ARG215      0.0321
     15  CG        25.9950   14.6280    7.0590 C.3   215  ARG215      0.0489
     16  CD        26.2150   13.7040    8.2790 C.3   215  ARG215      0.2205
     17  NE        26.8530   14.5040    9.3540 N.pl3 215  ARG215     -0.0865
     18  CZ        28.1380   14.8440    9.4840 C.cat 215  ARG215      0.5346
     19  NH1       29.0610   14.4420    8.6510 N.pl3 215  ARG215      0.1354
     20  NH2       28.5270   15.5870   10.5270 N.pl3 215  ARG215      0.1354
     21  N         27.0560   15.0890    3.5220 N.am  216  LEU216     -0.1980
     22  CA        28.0910   16.0070    3.0590 C.3   216  LEU216      0.1596
     23  C         27.5380   17.0630    2.1140 C.2   216  LEU216      0.2287
     24  O         27.9010   18.2360    2.2110 O.2   216  LEU216     -0.2864
     25  CB        29.2100   15.2310    2.3650 C.3   216  LEU216      0.0297
     26  CG        30.3210   14.8060    3.3230 C.3   216  LEU216      0.0022
     27  CD1       31.4290   14.0810    2.5890 C.3   216  LEU216      0.0001
     28  CD2       30.8560   16.0340    4.0010 C.3   216  LEU216      0.0001
     29  N         25.5080   19.8810    3.9300 N.3   219  ARG219     -0.1231
     30  CA        26.3550   20.9040    4.5380 C.3   219  ARG219      0.1694
     31  C         26.9870   21.8080    3.4890 C.2   219  ARG219      0.2592
     32  O         26.9820   23.0310    3.6170 O.2   219  ARG219     -0.2718
     33  CB        27.4820   20.2550    5.3590 C.3   219  ARG219      0.0321
     34  CG        27.0450   19.1930    6.3660 C.3   219  ARG219      0.0489
     35  CD        27.0810   19.7100    7.8100 C.3   219  ARG219      0.2205
     36  NE        26.3520   18.8480    8.7440 N.pl3 219  ARG219     -0.0865
     37  CZ        25.1220   18.3740    8.5420 C.cat 219  ARG219      0.5346
     38  NH1       24.4560   18.6700    7.4350 N.pl3 219  ARG219      0.1354
     39  NH2       24.5480   17.6050    9.4580 N.pl3 219  ARG219      0.1354
     40  N         27.5500   21.1940    2.4580 N.am  220  PHE220     -0.1976
     41  CA        28.1940   21.9440    1.3900 C.3   220  PHE220      0.1639
     42  C         27.3680   21.8150    0.1240 C.2   220  PHE220      0.2290
     43  O         27.7330   21.0800   -0.7860 O.2   220  PHE220     -0.2864
     44  CB        29.5920   21.3930    1.1440 C.3   220  PHE220      0.0560
     45  CG        30.3220   21.0090    2.3960 C.ar  220  PHE220     -0.0200
     46  CD1       30.3450   21.8640    3.4960 C.ar  220  PHE220     -0.0042
     47  CD2       31.0340   19.8150    2.4590 C.ar  220  PHE220     -0.0042
     48  CE1       31.0820   21.5360    4.6430 C.ar  220  PHE220     -0.0003
     49  CE2       31.7730   19.4770    3.5960 C.ar  220  PHE220     -0.0003
     50  CZ        31.8000   20.3380    4.6890 C.ar  220  PHE220     -0.0000
     51  N         35.7030   13.9730   -1.0640 N.3   231  LEU231     -0.1245
     52  CA        35.5360   13.9680    0.3860 C.3   231  LEU231      0.1561
     53  C         34.8720   12.6900    0.9320 C.2   231  LEU231      0.2260
     54  O         35.3940   12.0710    1.8630 O.2   231  LEU231     -0.2867
     55  CB        34.7430   15.2120    0.8030 C.3   231  LEU231      0.0270
     56  CG        35.3550   16.5320    0.3120 C.3   231  LEU231      0.0019
     57  CD1       34.3870   17.6840    0.5620 C.3   231  LEU231      0.0001
     58  CD2       36.6790   16.7860    1.0260 C.3   231  LEU231      0.0001
     59  N         36.7240   10.5000    3.4640 N.3   235  LEU235     -0.1245
     60  CA        35.9980   10.3460    4.7190 C.3   235  LEU235      0.1561
     61  C         35.9290    8.8850    5.1190 C.2   235  LEU235      0.2260
     62  O         36.4950    8.4750    6.1330 O.2   235  LEU235     -0.2867
     63  CB        34.5790   10.8990    4.5800 C.3   235  LEU235      0.0270
     64  CG        34.0070   11.7660    5.7090 C.3   235  LEU235      0.0019
     65  CD1       32.5450   11.4120    5.9090 C.3   235  LEU235      0.0001
     66  CD2       34.7750   11.5550    7.0030 C.3   235  LEU235      0.0001
     67  N         38.8080    7.3870    6.5430 N.3   238  VAL238     -0.1231
     68  CA        39.0570    7.8610    7.8960 C.3   238  VAL238      0.1692
     69  C         38.3120    7.0130    8.9150 C.2   238  VAL238      0.2592
     70  O         38.9250    6.4090    9.7940 O.2   238  VAL238     -0.2718
     71  CB        38.6270    9.3390    8.0610 C.3   238  VAL238      0.0266
     72  CG1       38.7340    9.7520    9.5010 C.3   238  VAL238      0.0020
     73  CG2       39.5080   10.2320    7.2290 C.3   238  VAL238      0.0020
     74  N         36.9890    6.9650    8.7840 N.am  239  HIS239     -0.1976
     75  CA        36.1510    6.2000    9.7010 C.3   239  HIS239      0.1656
     76  C         36.4840    4.7240    9.7530 C.2   239  HIS239      0.2291
     77  O         36.2490    4.0670   10.7620 O.2   239  HIS239     -0.2864
     78  CB        34.6880    6.3720    9.3330 C.3   239  HIS239      0.0771
     79  CG        34.1260    7.6880    9.7580 C.ar  239  HIS239      0.0820
     80  ND1       33.3490    7.8380   10.8830 N.ar  239  HIS239     -0.2267
     81  CD2       34.2520    8.9230    9.2170 C.ar  239  HIS239      0.1154
     82  CE1       33.0210    9.1090   11.0210 C.ar  239  HIS239      0.1986
     83  NE2       33.5570    9.7880   10.0220 N.ar  239  HIS239     -0.2212
     84  N         42.6380   12.1100    9.8670 N.3   254  ARG254     -0.1245
     85  CA        41.6940   13.1950   10.1080 C.3   254  ARG254      0.1563
     86  C         42.3470   14.5480    9.9220 C.2   254  ARG254      0.2260
     87  O         41.7020   15.4930    9.4670 O.2   254  ARG254     -0.2867
     88  CB        41.1330   13.1100   11.5250 C.3   254  ARG254      0.0307
     89  CG        40.1380   11.9870   11.7380 C.3   254  ARG254      0.0489
     90  CD        39.6610   12.0020   13.1680 C.3   254  ARG254      0.2205
     91  NE        39.3500   13.3630   13.5850 N.pl3 254  ARG254     -0.0865
     92  CZ        38.2000   13.7170   14.1420 C.cat 254  ARG254      0.5346
     93  NH1       37.2570   12.8100   14.3510 N.pl3 254  ARG254      0.1354
     94  NH2       37.9840   14.9810   14.4690 N.pl3 254  ARG254      0.1354
     95  N         42.7380   15.1870    5.8720 N.3   257  LEU257     -0.1231
     96  CA        41.4790   15.6150    5.2650 C.3   257  LEU257      0.1693
     97  C         40.9680   16.9550    5.7880 C.2   257  LEU257      0.2591
     98  O         40.1270   17.6000    5.1520 O.2   257  LEU257     -0.2718
     99  CB        40.3970   14.5560    5.4740 C.3   257  LEU257      0.0284
    100  CG        38.9970   15.0220    5.0730 C.3   257  LEU257      0.0019
    101  CD1       38.9670   15.3850    3.5930 C.3   257  LEU257      0.0001
    102  CD2       38.0030   13.9290    5.3840 C.3   257  LEU257      0.0001
    103  N         41.4560   17.3590    6.9550 N.am  258  ALA258     -0.1980
    104  CA        41.0460   18.6270    7.5350 C.3   258  ALA258      0.1597
    105  C         41.8290   19.7040    6.8000 C.2   258  ALA258      0.2287
    106  O         41.3000   20.7750    6.4900 O.2   258  ALA258     -0.2864
    107  CB        41.3640   18.6530    9.0170 C.3   258  ALA258      0.0319
    108  N         40.4570   20.0600    3.2190 N.3   261  ILE261     -0.1245
    109  CA        39.2060   20.8190    3.1830 C.3   261  ILE261      0.1561
    110  C         39.4460   22.3190    3.3280 C.2   261  ILE261      0.2260
    111  O         38.8540   23.1200    2.6050 O.2   261  ILE261     -0.2867
    112  CB        38.2230   20.3500    4.3000 C.3   261  ILE261      0.0252
    113  CG1       37.8310   18.8850    4.0630 C.3   261  ILE261      0.0019
    114  CG2       36.9900   21.2540    4.3380 C.3   261  ILE261      0.0019
    115  CD1       36.3680   18.5410    4.3700 C.3   261  ILE261      0.0001
    116  N         39.6290   19.6050   12.8620 N.3   284  SER284     -0.1217
    117  CA        38.7320   18.4910   12.5270 C.3   284  SER284      0.1889
    118  C         37.3960   18.6170   13.2400 C.2   284  SER284      0.2288
    119  O         36.3570   18.8020   12.5960 O.2   284  SER284     -0.2866
    120  CB        39.3580   17.1400   12.9010 C.3   284  SER284      0.2089
    121  OG        40.7690   17.1890   12.8630 O.3   284  SER284     -0.2183
    122  N         35.2540   21.5100   12.0170 N.3   287  ILE287     -0.1231
    123  CA        34.6590   21.2380   10.7160 C.3   287  ILE287      0.1692
    124  C         33.5150   20.2380   10.7720 C.2   287  ILE287      0.2591
    125  O         32.4760   20.4330   10.1410 O.2   287  ILE287     -0.2718
    126  CB        35.7300   20.7240    9.7400 C.3   287  ILE287      0.0266
    127  CG1       36.8400   21.7690    9.6330 C.3   287  ILE287      0.0019
    128  CG2       35.1170   20.4390    8.3770 C.3   287  ILE287      0.0020
    129  CD1       37.8990   21.4580    8.6120 C.3   287  ILE287      0.0001
    130  N         33.7100   19.1680   11.5320 N.am  288  ALA288     -0.1980
    131  CA        32.6890   18.1390   11.6550 C.3   288  ALA288      0.1597
    132  C         31.3730   18.6680   12.2090 C.2   288  ALA288      0.2287
    133  O         30.3080   18.2170   11.8030 O.2   288  ALA288     -0.2864
    134  CB        33.2000   17.0100   12.5170 C.3   288  ALA288      0.0319
@<TRIPOS>BOND
     1    51    52    1
     2    43    42    2
     3    42    41    1
     4    56    57    1
     5    56    55    1
     6    56    58    1
     7    52    55    1
     8    52    53    1
     9    53    54    2
    10    44    41    1
    11    44    45    1
    12    41    40    1
    13    23    24    2
    14    23    22    1
    15    25    22    1
    16    25    26    1
    17    45    47   ar
    18    45    46   ar
    19    40    31   am
    20    47    49   ar
    21    27    26    1
    22   111   110    2
    23    22    21    1
    24   109   108    1
    25   109   110    1
    26   109   112    1
    27    26    28    1
    28    59    60    1
    29    31    32    2
    30    31    30    1
    31    46    48   ar
    32    21    12   am
    33   101   100    1
    34    49    50   ar
    35    10    11    1
    36    29    30    1
    37   113   112    1
    38   113   115    1
    39    12    13    2
    40    12    11    1
    41   112   114    1
    42    30    33    1
    43    63    60    1
    44    63    64    1
    45    48    50   ar
    46    11    14    1
    47    60    61    1
    48   100   102    1
    49   100    99    1
    50    61    62    2
    51    98    97    2
    52    96    99    1
    53    96    97    1
    54    96    95    1
    55    33    34    1
    56    64    65    1
    57    64    66    1
    58    97   103   am
    59    14    15    1
    60    34    35    1
    61   106   105    2
    62    67    68    1
    63   105   104    1
    64   103   104    1
    65    15    16    1
    66    73    71    1
    67    38    37    1
    68   104   107    1
    69    35    36    1
    70    68    71    1
    71    68    69    1
    72    71    72    1
    73    16    17    1
    74   128   126    1
    75    37    36    2
    76    37    39    1
    77   129   127    1
    78    19    18    1
    79    74    69   am
    80    74    75    1
    81    69    70    2
    82    81    79   ar
    83    81    83   ar
    84    78    75    1
    85    78    79    1
    86    17    18    2
    87    87    86    2
    88    18    20    1
    89   127   126    1
    90    75    76    1
    91   126   123    1
    92    76    77    2
    93    79    80   ar
    94    84    85    1
    95    86    85    1
    96    83    82   ar
    97    85    88    1
    98   125   124    2
    99   123   124    1
   100   123   122    1
   101   124   130   am
   102    80    82   ar
   103    88    89    1
   104   130   131    1
   105     9     8    1
   106     4     3    2
   107   131   132    1
   108   131   134    1
   109    89    90    1
   110   133   132    2
   111     7     6    1
   112     7     8    1
   113   117   116    1
   114   117   120    1
   115   117   118    1
   116     6     5    1
   117   119   118    2
   118     3     2    1
   119   121   120    1
   120     5     2    1
   121     2     1    1
   122    90    91    1
   123    91    92    2
   124    92    93    1
   125    92    94    1
