@<TRIPOS>MOLECULE
tmp/1bkgD01.pdb
 120 111 0 0 0
SMALL
GASTEIGER

@<TRIPOS>ATOM
      1  N         45.5570   37.3120  -42.0970 N.3    14  SER14      -0.1217
      2  CA        44.4540   37.5400  -43.0250 C.3    14  SER14       0.1889
      3  C         43.5390   36.3490  -43.3030 C.2    14  SER14       0.2288
      4  O         43.9590   35.3220  -43.8120 O.2    14  SER14      -0.2866
      5  CB        44.9830   38.1170  -44.3230 C.3    14  SER14       0.2089
      6  OG        43.9090   38.5340  -45.1250 O.3    14  SER14      -0.2183
      7  N         40.7540   36.3740  -45.3130 N.3    16  THR16      -0.1203
      8  CA        40.3680   36.3460  -46.7200 C.3    16  THR16       0.1994
      9  C         41.4840   35.6520  -47.5090 C.2    16  THR16       0.2617
     10  O         41.2250   34.8440  -48.4010 O.2    16  THR16      -0.2717
     11  CB        40.1440   37.7720  -47.2450 C.3    16  THR16       0.1784
     12  OG1       41.2150   38.6110  -46.8240 O.3    16  THR16      -0.2211
     13  CG2       38.8850   38.3450  -46.6950 C.3    16  THR16       0.0376
     14  N         42.7280   35.9710  -47.1460 N.am   17  VAL17      -0.1979
     15  CA        43.9130   35.3830  -47.7580 C.3    17  VAL17       0.1595
     16  C         43.8800   33.8770  -47.4900 C.2    17  VAL17       0.2287
     17  O         44.0750   33.0610  -48.3940 O.2    17  VAL17      -0.2864
     18  CB        45.2120   35.9990  -47.1640 C.3    17  VAL17       0.0276
     19  CG1       46.3900   35.0790  -47.3820 C.3    17  VAL17       0.0022
     20  CG2       45.4970   37.3580  -47.7920 C.3    17  VAL17       0.0022
     21  N         41.2230   31.8780  -49.4750 N.3    20  ASN20      -0.1240
     22  CA        41.5600   31.8520  -50.8830 C.3    20  ASN20       0.1653
     23  C         42.5140   30.7240  -51.1400 C.2    20  ASN20       0.2266
     24  O         42.3940   30.0200  -52.1340 O.2    20  ASN20      -0.2867
     25  CB        42.2080   33.1620  -51.3020 C.3    20  ASN20       0.1155
     26  CG        41.3150   33.9770  -52.1940 C.2    20  ASN20       0.2627
     27  OD1       41.1260   33.6370  -53.3620 O.2    20  ASN20      -0.2716
     28  ND2       40.7340   35.0530  -51.6440 N.am   20  ASN20      -0.0877
     29  N         35.7000   33.9600  -53.8690 N.3    37  THR37      -0.1218
     30  CA        36.4530   34.5340  -52.7700 C.3    37  THR37       0.1862
     31  C         37.4620   35.6120  -53.1710 C.2    37  THR37       0.2287
     32  O         37.9740   36.3420  -52.3260 O.2    37  THR37      -0.2866
     33  CB        37.2360   33.4240  -52.0870 C.3    37  THR37       0.1770
     34  OG1       38.0730   32.7870  -53.0580 O.3    37  THR37      -0.2211
     35  CG2       36.3160   32.3780  -51.5080 C.3    37  THR37       0.0375
     36  N         39.5360   38.8200  -54.3970 N.3    39  GLY39      -0.1225
     37  CA        39.4040   40.2420  -54.1540 C.3    39  GLY39       0.1811
     38  C         40.2830   40.9570  -55.1590 C.2    39  GLY39       0.2280
     39  O         40.8650   42.0010  -54.8640 O.2    39  GLY39      -0.2866
     40  N         47.7920   48.5060  -48.4780 N.3   101  LYS101     -0.1245
     41  CA        47.8940   47.8930  -47.1570 C.3   101  LYS101      0.1561
     42  C         49.0660   48.4500  -46.3570 C.2   101  LYS101      0.2260
     43  O         48.9450   48.6560  -45.1620 O.2   101  LYS101     -0.2867
     44  CB        48.0360   46.3720  -47.2780 C.3   101  LYS101      0.0271
     45  CG        48.0170   45.6580  -45.9580 C.3   101  LYS101      0.0035
     46  CD        47.9950   44.1660  -46.1180 C.3   101  LYS101      0.0206
     47  CE        46.6280   43.6810  -46.5290 C.3   101  LYS101      0.1093
     48  NZ        46.5790   42.1770  -46.6420 N.3   101  LYS101     -0.1314
     49  N         36.7050   45.7160  -43.2860 N.3   125  TRP125     -0.1241
     50  CA        37.6440   44.8400  -43.9470 C.3   125  TRP125      0.1605
     51  C         38.5020   44.1630  -42.8910 C.2   125  TRP125      0.2264
     52  O         39.0170   44.7920  -41.9710 O.2   125  TRP125     -0.2867
     53  CB        38.4880   45.6380  -44.9520 C.3   125  TRP125      0.0550
     54  CG        39.5950   44.8860  -45.6410 C.ar  125  TRP125      0.0003
     55  CD1       39.5240   43.6550  -46.2300 C.ar  125  TRP125      0.0946
     56  CD2       40.9370   45.3400  -45.8220 C.ar  125  TRP125      0.0152
     57  NE1       40.7420   43.3160  -46.7690 N.ar  125  TRP125     -0.2442
     58  CE2       41.6280   44.3330  -46.5340 C.ar  125  TRP125      0.0810
     59  CE3       41.6260   46.4890  -45.4470 C.ar  125  TRP125      0.0012
     60  CZ2       42.9790   44.4470  -46.8810 C.ar  125  TRP125      0.0191
     61  CZ3       42.9840   46.6060  -45.7880 C.ar  125  TRP125      0.0001
     62  CH2       43.6370   45.5860  -46.5000 C.ar  125  TRP125      0.0015
     63  N         41.4110   43.3540  -42.2660 N.3   127  SER127     -0.1217
     64  CA        42.6690   43.9030  -41.7740 C.3   127  SER127      0.1889
     65  C         42.6960   45.1330  -40.8690 C.2   127  SER127      0.2288
     66  O         43.6930   45.3290  -40.1540 O.2   127  SER127     -0.2866
     67  CB        43.6230   44.1350  -42.9360 C.3   127  SER127      0.2089
     68  OG        43.9900   42.9140  -43.5400 O.3   127  SER127     -0.2183
     69  N         34.3320   47.4980  -48.8290 N.3   175  ASN175     -0.1240
     70  CA        34.6550   46.0660  -48.8630 C.3   175  ASN175      0.1653
     71  C         34.3350   45.7140  -47.3920 C.2   175  ASN175      0.2266
     72  O         34.9870   46.2410  -46.4830 O.2   175  ASN175     -0.2867
     73  CB        36.1460   45.8520  -49.1330 C.3   175  ASN175      0.1155
     74  CG        36.5690   44.3990  -48.9700 C.2   175  ASN175      0.2627
     75  OD1       35.7630   43.5320  -48.6210 O.2   175  ASN175     -0.2716
     76  ND2       37.8310   44.1210  -49.2420 N.am  175  ASN175     -0.0877
     77  N         38.7830   51.4170  -54.1400 N.3   206  TYR206     -0.1241
     78  CA        37.7530   51.0430  -55.1080 C.3   206  TYR206      0.1605
     79  C         37.0700   52.2350  -55.7970 C.2   206  TYR206      0.2264
     80  O         36.0160   52.0720  -56.3930 O.2   206  TYR206     -0.2867
     81  CB        36.6820   50.1680  -54.4540 C.3   206  TYR206      0.0534
     82  CG        37.2050   48.8630  -53.9110 C.ar  206  TYR206     -0.0201
     83  CD1       37.5310   47.8130  -54.7620 C.ar  206  TYR206     -0.0009
     84  CD2       37.4520   48.7040  -52.5560 C.ar  206  TYR206     -0.0009
     85  CE1       38.0960   46.6520  -54.2800 C.ar  206  TYR206      0.0417
     86  CE2       38.0240   47.5390  -52.0650 C.ar  206  TYR206      0.0417
     87  CZ        38.3480   46.5260  -52.9310 C.ar  206  TYR206      0.1957
     88  OH        38.9630   45.4000  -52.4540 O.3   206  TYR206     -0.2866
     89  N         43.1810   47.8560  -57.6810 N.3   234  LYS234     -0.1245
     90  CA        41.8870   47.5560  -58.2670 C.3   234  LYS234      0.1561
     91  C         41.6120   48.2430  -59.5860 C.2   234  LYS234      0.2260
     92  O         41.0800   47.6260  -60.5080 O.2   234  LYS234     -0.2867
     93  CB        40.7740   47.8720  -57.2790 C.3   234  LYS234      0.0271
     94  CG        41.0680   47.3980  -55.8890 C.3   234  LYS234      0.0035
     95  CD        41.3580   45.9110  -55.8130 C.3   234  LYS234      0.0206
     96  CE        41.9560   45.6150  -54.4520 C.3   234  LYS234      0.1093
     97  NZ        42.1620   44.1800  -54.1970 N.3   234  LYS234     -0.1314
     98  N         32.0290   43.2010  -54.5340 N.3   322  TYR322     -0.1241
     99  CA        31.5920   42.2620  -53.4970 C.3   322  TYR322      0.1605
    100  C         30.1250   42.4310  -53.1780 C.2   322  TYR322      0.2264
    101  O         29.5510   43.4970  -53.3920 O.2   322  TYR322     -0.2867
    102  CB        32.3630   42.4740  -52.1940 C.3   322  TYR322      0.0534
    103  CG        33.8600   42.6420  -52.3490 C.ar  322  TYR322     -0.0201
    104  CD1       34.6950   41.5460  -52.5550 C.ar  322  TYR322     -0.0009
    105  CD2       34.4350   43.9040  -52.3080 C.ar  322  TYR322     -0.0009
    106  CE1       36.0640   41.7040  -52.7170 C.ar  322  TYR322      0.0417
    107  CE2       35.8050   44.0690  -52.4720 C.ar  322  TYR322      0.0417
    108  CZ        36.6100   42.9600  -52.6740 C.ar  322  TYR322      0.1957
    109  OH        37.9650   43.1120  -52.8330 O.3   322  TYR322     -0.2866
    110  N         30.4360   36.6830  -47.9110 N.3   361  ARG361     -0.1245
    111  CA        30.8380   37.6350  -48.9590 C.3   361  ARG361      0.1563
    112  C         31.1110   36.9690  -50.3120 C.2   361  ARG361      0.2260
    113  O         31.9010   36.0240  -50.3940 O.2   361  ARG361     -0.2867
    114  CB        32.0730   38.4570  -48.5300 C.3   361  ARG361      0.0307
    115  CG        32.4170   39.6080  -49.4970 C.3   361  ARG361      0.0489
    116  CD        33.8030   40.2580  -49.2540 C.3   361  ARG361      0.2205
    117  NE        34.9270   39.4530  -49.7560 N.pl3 361  ARG361     -0.0865
    118  CZ        36.2110   39.7920  -49.6510 C.cat 361  ARG361      0.5346
    119  NH1       36.5550   40.9340  -49.0630 N.pl3 361  ARG361      0.1354
    120  NH2       37.1540   38.9910  -50.1320 N.pl3 361  ARG361      0.1354
@<TRIPOS>BOND
     1    92    91    2
     2    91    90    1
     3    90    89    1
     4    90    93    1
     5    93    94    1
     6    80    79    2
     7    94    95    1
     8    95    96    1
     9    79    78    1
    10    38    39    2
    11    38    37    1
    12    78    81    1
    13    78    77    1
    14    83    85   ar
    15    83    82   ar
    16    98    99    1
    17    81    82    1
    18    96    97    1
    19    36    37    1
    20    85    87   ar
    21    82    84   ar
    22    29    30    1
    23    99   100    1
    24    99   102    1
    25   101   100    2
    26    27    26    2
    27    31    30    1
    28    31    32    2
    29    34    33    1
    30    87    88    1
    31    87    86   ar
    32   109   108    1
    33    30    33    1
    34   106   108   ar
    35   106   104   ar
    36   108   107   ar
    37    84    86   ar
    38   104   103   ar
    39   107   105   ar
    40   103   105   ar
    41   103   102    1
    42    26    28   am
    43    26    25    1
    44    24    23    2
    45    33    35    1
    46    25    22    1
    47    23    22    1
    48    22    21    1
    49   113   112    2
    50   112   111    1
    51   120   118    1
    52   117   118    2
    53   117   116    1
    54   118   119    1
    55   115   116    1
    56   115   114    1
    57    76    74   am
    58    73    74    1
    59    73    70    1
    60    74    75    2
    61   111   114    1
    62   111   110    1
    63    70    69    1
    64    70    71    1
    65    40    41    1
    66    10     9    2
    67    17    16    2
    68    20    18    1
    69    15    16    1
    70    15    18    1
    71    15    14    1
    72     9    14   am
    73     9     8    1
    74    71    72    2
    75    19    18    1
    76    44    41    1
    77    44    45    1
    78    11    12    1
    79    11     8    1
    80    11    13    1
    81    41    42    1
    82    60    58   ar
    83    60    62   ar
    84    57    58   ar
    85    57    55   ar
    86     8     7    1
    87    48    47    1
    88    58    56   ar
    89    47    46    1
    90    62    61   ar
    91    42    43    2
    92    55    54   ar
    93    46    45    1
    94    56    54   ar
    95    56    59   ar
    96    61    59   ar
    97    54    53    1
    98     6     5    1
    99    53    50    1
   100     5     2    1
   101    50    49    1
   102    50    51    1
   103     4     3    2
   104    68    67    1
   105     3     2    1
   106     2     1    1
   107    67    64    1
   108    51    52    2
   109    63    64    1
   110    64    65    1
   111    65    66    2
