@<TRIPOS>MOLECULE
tmp/1bkmA00.pdb
 137 132 0 0 0
SMALL
GASTEIGER

@<TRIPOS>ATOM
      1  N         12.9820    3.9440   11.5910 N.3    10  ARG10      -0.1245
      2  CA        12.7100    5.3100   11.1060 C.3    10  ARG10       0.1563
      3  C         12.8870    5.6140    9.5880 C.2    10  ARG10       0.2260
      4  O         11.9480    5.9920    8.9060 O.2    10  ARG10      -0.2867
      5  CB        13.5420    6.2730   11.9400 C.3    10  ARG10       0.0307
      6  CG        13.2540    7.7250   11.5960 C.3    10  ARG10       0.0489
      7  CD        13.6680    8.5460   12.7880 C.3    10  ARG10       0.2205
      8  NE        13.4920    9.9400   12.5100 N.pl3  10  ARG10      -0.0865
      9  CZ        12.9140   10.7320   13.3780 C.cat  10  ARG10       0.5346
     10  NH1       12.4420   10.2710   14.5250 N.pl3  10  ARG10       0.1354
     11  NH2       12.8230   11.9890   13.0500 N.pl3  10  ARG10       0.1354
     12  N          4.7500    2.1510   14.4540 N.3    30  ARG30      -0.1245
     13  CA         5.9150    1.2760   14.5930 C.3    30  ARG30       0.1563
     14  C          6.4510    1.2940   16.0150 C.2    30  ARG30       0.2260
     15  O          6.1460    2.1760   16.7830 O.2    30  ARG30      -0.2867
     16  CB         7.0110    1.6750   13.5830 C.3    30  ARG30       0.0307
     17  CG         7.4350    3.1550   13.6140 C.3    30  ARG30       0.0489
     18  CD         8.4940    3.4920   12.5440 C.3    30  ARG30       0.2205
     19  NE         9.0040    4.8700   12.6480 N.pl3  30  ARG30      -0.0865
     20  CZ         9.8790    5.2590   13.5980 C.cat  30  ARG30       0.5346
     21  NH1       10.3790    4.4600   14.4800 N.pl3  30  ARG30       0.1354
     22  NH2       10.2440    6.5020   13.6870 N.pl3  30  ARG30       0.1354
     23  N          9.3250    2.4210   18.5140 N.3    32  SER32      -0.1202
     24  CA        10.4000    3.4360   18.5110 C.3    32  SER32       0.2020
     25  C         11.7640    2.7900   18.4960 C.2    32  SER32       0.2619
     26  O         12.1250    2.0810   19.4230 O.2    32  SER32      -0.2717
     27  CB        10.3740    4.2920   19.7760 C.3    32  SER32       0.2103
     28  OG        11.4340    5.2480   19.7800 O.3    32  SER32      -0.2182
     29  N         12.5590    3.0600   17.4420 N.am   33  GLU33      -0.1965
     30  CA        13.9550    2.5560   17.4690 C.3    33  GLU33       0.1733
     31  C         14.8200    2.9700   18.6420 C.2    33  GLU33       0.2617
     32  O         15.7770    2.3310   19.0530 O.2    33  GLU33      -0.2715
     33  CB        14.7670    3.0380   16.2940 C.3    33  GLU33       0.0429
     34  CG        14.4090    2.4160   14.9750 C.3    33  GLU33       0.1163
     35  CD        15.3470    3.0420   14.0270 C.2    33  GLU33       0.3649
     36  OE1       15.0400    4.1010   13.5290 O.co2  33  GLU33      -0.2457
     37  OE2       16.4030    2.5100   13.8170 O.co2  33  GLU33      -0.2457
     38  N         14.4870    4.1070   19.2090 N.am   34  THR34      -0.1951
     39  CA        15.4650    4.6160   20.1690 C.3    34  THR34       0.1897
     40  C         14.9980    4.6380   21.6160 C.2    34  THR34       0.2313
     41  O         15.7410    4.3030   22.5300 O.2    34  THR34      -0.2863
     42  CB        15.9730    5.9730   19.7090 C.3    34  THR34       0.1794
     43  OG1       14.8590    6.8330   19.4310 O.3    34  THR34      -0.2208
     44  CG2       16.8400    5.8250   18.4520 C.3    34  THR34       0.0378
     45  N          5.8140    4.5740   17.8960 N.3    40  CYS40      -0.1235
     46  CA         5.8510    5.7850   17.0960 C.3    40  CYS40       0.1677
     47  C          4.7820    5.8200   15.9930 C.2    40  CYS40       0.2270
     48  O          4.5940    4.8620   15.2540 O.2    40  CYS40      -0.2867
     49  CB         7.2790    5.9520   16.5460 C.3    40  CYS40       0.0956
     50  SG         7.4270    7.4080   15.4850 S.3    40  CYS40      -0.0801
     51  N          6.3140   13.6540    9.5160 N.3    55  LYS55      -0.1231
     52  CA         6.4230   13.8860   10.9700 C.3    55  LYS55       0.1693
     53  C          6.3490   12.6090   11.8250 C.2    55  LYS55       0.2592
     54  O          5.6360   11.6640   11.5170 O.2    55  LYS55      -0.2718
     55  CB         5.2910   14.8150   11.4080 C.3    55  LYS55       0.0285
     56  CG         5.0220   16.1290   10.5980 C.3    55  LYS55       0.0035
     57  CD         6.1070   17.2070   10.6740 C.3    55  LYS55       0.0206
     58  CE         5.7110   18.5450   10.0180 C.3    55  LYS55       0.1093
     59  NZ         5.3090   18.3590    8.6090 N.3    55  LYS55      -0.1314
     60  N          7.1110   12.5990   12.9170 N.am   56  HIS56      -0.1962
     61  CA         7.0870   11.4720   13.8360 C.3    56  HIS56       0.1787
     62  C          6.6910   11.8580   15.2230 C.2    56  HIS56       0.2620
     63  O          7.2610   12.7450   15.8480 O.2    56  HIS56      -0.2715
     64  CB         8.4480   10.7750   13.9840 C.3    56  HIS56       0.0785
     65  CG         9.0190   10.3080   12.6610 C.ar   56  HIS56       0.0821
     66  ND1        8.7980    9.0910   12.1250 N.ar   56  HIS56      -0.2267
     67  CD2        9.8500   11.0330   11.7920 C.ar   56  HIS56       0.1154
     68  CE1        9.4840    9.0340   10.9350 C.ar   56  HIS56       0.1986
     69  NE2       10.1250   10.2310   10.7400 N.ar   56  HIS56      -0.2212
     70  N          5.7010   11.1370   15.7040 N.am   57  TYR57      -0.1960
     71  CA         5.2040   11.3850   17.0480 C.3    57  TYR57       0.1771
     72  C          5.4790   10.1980   17.9450 C.2    57  TYR57       0.2619
     73  O          5.0050    9.1040   17.6810 O.2    57  TYR57      -0.2715
     74  CB         3.6670   11.6030   17.0740 C.3    57  TYR57       0.0574
     75  CG         3.2600   12.7790   16.2090 C.ar   57  TYR57      -0.0198
     76  CD1        3.0150   12.5350   14.8540 C.ar   57  TYR57      -0.0009
     77  CD2        3.1730   14.0810   16.7630 C.ar   57  TYR57      -0.0009
     78  CE1        2.7180   13.6050   14.0090 C.ar   57  TYR57       0.0417
     79  CE2        2.8870   15.1610   15.9090 C.ar   57  TYR57       0.0417
     80  CZ         2.6980   14.9100   14.5390 C.ar   57  TYR57       0.1957
     81  OH         2.5050   15.9570   13.6720 O.3    57  TYR57      -0.2866
     82  N          6.2510   10.4340   19.0260 N.am   58  LYS58      -0.1977
     83  CA         6.4030    9.3860   20.0380 C.3    58  LYS58       0.1596
     84  C          5.1180    9.0840   20.8010 C.2    58  LYS58       0.2287
     85  O          4.4230    9.9620   21.3050 O.2    58  LYS58      -0.2864
     86  CB         7.4790    9.8080   21.0470 C.3    58  LYS58       0.0298
     87  CG         8.2280    8.6100   21.6340 C.3    58  LYS58       0.0038
     88  CD         9.3660    8.8970   22.6300 C.3    58  LYS58       0.0206
     89  CE        10.5590    9.6570   22.0750 C.3    58  LYS58       0.1093
     90  NZ        11.7050    9.5430   22.9950 N.3    58  LYS58      -0.1314
     91  N          0.2540   10.5250   23.0600 N.3    69  ILE69      -0.1231
     92  CA         1.1660   11.4900   22.4590 C.3    69  ILE69       0.1692
     93  C          1.2850   12.7570   23.3160 C.2    69  ILE69       0.2592
     94  O          2.3370   13.1220   23.8210 O.2    69  ILE69      -0.2718
     95  CB         0.6850   11.7840   21.0280 C.3    69  ILE69       0.0266
     96  CG1        0.6890   10.5220   20.1600 C.3    69  ILE69       0.0019
     97  CG2        1.5600   12.8420   20.3590 C.3    69  ILE69       0.0020
     98  CD1        0.1470   10.7940   18.7350 C.3    69  ILE69       0.0001
     99  N          0.1460   13.3940   23.5550 N.am   70  THR70      -0.1953
    100  CA         0.0590   14.3890   24.6490 C.3    70  THR70       0.1897
    101  C         -0.5100   13.7920   25.9130 C.2    70  THR70       0.2313
    102  O         -1.5550   13.1660   25.9010 O.2    70  THR70      -0.2863
    103  CB        -0.8800   15.5910   24.3680 C.3    70  THR70       0.1794
    104  OG1       -1.0900   15.8040   22.9660 O.3    70  THR70      -0.2208
    105  CG2       -0.3570   16.8620   25.0410 C.3    70  THR70       0.0378
    106  N         -7.3190    9.9780   16.3080 N.3    85  TYR85      -0.1241
    107  CA        -6.6640   10.8780   15.3580 C.3    85  TYR85       0.1605
    108  C         -7.0700   10.7930   13.8900 C.2    85  TYR85       0.2264
    109  O         -6.8310   11.6750   13.0670 O.2    85  TYR85      -0.2867
    110  CB        -5.1580   10.7190   15.5120 C.3    85  TYR85       0.0534
    111  CG        -4.7430   11.2510   16.8630 C.ar   85  TYR85      -0.0201
    112  CD1       -4.7760   12.6450   17.0470 C.ar   85  TYR85      -0.0009
    113  CD2       -4.3020   10.3710   17.8650 C.ar   85  TYR85      -0.0009
    114  CE1       -4.3130   13.1860   18.2560 C.ar   85  TYR85       0.0417
    115  CE2       -3.8510   10.9180   19.0770 C.ar   85  TYR85       0.0417
    116  CZ        -3.8720   12.3160   19.2480 C.ar   85  TYR85       0.1957
    117  OH        -3.4810   12.8370   20.4570 O.3    85  TYR85      -0.2866
    118  N         -6.1610   17.2450   16.1760 N.3    90  ASP90      -0.1225
    119  CA        -5.9120   17.6660   17.5790 C.3    90  ASP90       0.1805
    120  C         -4.4400   17.8960   17.9400 C.2    90  ASP90       0.2598
    121  O         -3.8160   17.2420   18.7710 O.2    90  ASP90      -0.2718
    122  CB        -6.6740   16.7370   18.5640 C.3    90  ASP90       0.1424
    123  CG        -6.7810   17.2620   20.0160 C.2    90  ASP90       0.3668
    124  OD1       -6.6630   18.4550   20.2870 O.co2  90  ASP90      -0.2456
    125  OD2       -6.9890   16.4320   20.8990 O.co2  90  ASP90      -0.2456
    126  N         -3.8740   18.8440   17.1580 N.am   91  GLY91      -0.1942
    127  CA        -2.4360   19.1120   17.2520 C.3    91  GLY91       0.2014
    128  C         -1.4570   18.2520   16.4260 C.2    91  GLY91       0.2638
    129  O         -0.3360   18.6690   16.2020 O.2    91  GLY91      -0.2714
    130  N         -1.8780   17.0640   15.9240 N.am   92  LEU92      -0.1977
    131  CA        -1.0620   16.4560   14.8400 C.3    92  LEU92       0.1596
    132  C         -1.0010   17.3230   13.5800 C.2    92  LEU92       0.2287
    133  O         -1.8490   18.1770   13.3990 O.2    92  LEU92      -0.2864
    134  CB        -1.5440   15.0490   14.4180 C.3    92  LEU92       0.0297
    135  CG        -1.6790   13.9830   15.5210 C.3    92  LEU92       0.0022
    136  CD1       -1.8050   12.6020   14.8960 C.3    92  LEU92       0.0001
    137  CD2       -0.5200   13.9470   16.5210 C.3    92  LEU92       0.0001
@<TRIPOS>BOND
     1    59    58    1
     2     4     3    2
     3    51    52    1
     4     3     2    1
     5    58    57    1
     6    56    57    1
     7    56    55    1
     8    69    68   ar
     9    69    67   ar
    10    68    66   ar
    11    52    55    1
    12    52    53    1
    13     2     1    1
    14     2     5    1
    15    54    53    2
    16     6     5    1
    17     6     7    1
    18    67    65   ar
    19    53    60   am
    20    66    65   ar
    21     8     7    1
    22     8     9    2
    23    18    19    1
    24    18    17    1
    25    19    20    2
    26    65    64    1
    27    60    61    1
    28    11     9    1
    29   109   108    2
    30     9    10    1
    31   133   132    2
    32    36    35   ar
    33   132   131    1
    34    16    17    1
    35    16    13    1
    36    20    22    1
    37    20    21    1
    38    81    80    1
    39    37    35   ar
    40    61    64    1
    41    61    62    1
    42   108   107    1
    43    78    80   ar
    44    78    76   ar
    45    35    34    1
    46   134   131    1
    47   134   135    1
    48    12    13    1
    49    80    79   ar
    50    13    14    1
    51   131   130    1
    52    76    75   ar
    53   136   135    1
    54    34    33    1
    55    62    70   am
    56    62    63    2
    57    48    47    2
    58   107   110    1
    59   107   106    1
    60    50    49    1
    61   110   111    1
    62   135   137    1
    63    70    71    1
    64    79    77   ar
    65   130   128   am
    66    47    46    1
    67    14    15    2
    68   118   119    1
    69   129   128    2
    70    75    77   ar
    71    75    74    1
    72    33    30    1
    73   128   127    1
    74    49    46    1
    75   111   112   ar
    76   111   113   ar
    77   112   114   ar
    78    71    74    1
    79    71    72    1
    80    46    45    1
    81   126   127    1
    82   126   120   am
    83    29    30    1
    84    29    25   am
    85    30    31    1
    86   119   120    1
    87   119   122    1
    88    73    72    2
    89   113   115   ar
    90   120   121    2
    91    72    82   am
    92   114   116   ar
    93    44    42    1
    94    25    24    1
    95    25    26    2
    96    24    23    1
    97    24    27    1
    98   122   123    1
    99    31    32    2
   100    31    38   am
   101    98    96    1
   102    82    83    1
   103   115   116   ar
   104    38    39    1
   105   116   117    1
   106    43    42    1
   107    42    39    1
   108    27    28    1
   109   123   124   ar
   110   123   125   ar
   111    83    84    1
   112    83    86    1
   113    96    95    1
   114    39    40    1
   115    97    95    1
   116    84    85    2
   117    95    92    1
   118    86    87    1
   119    40    41    2
   120    87    88    1
   121    89    88    1
   122    89    90    1
   123    92    91    1
   124    92    93    1
   125   104   103    1
   126    93    99   am
   127    93    94    2
   128    99   100    1
   129   103   100    1
   130   103   105    1
   131   100   101    1
   132   102   101    2
