@<TRIPOS>MOLECULE
tmp/1bkyA01.pdb
 89 86 0 0 0
SMALL
GASTEIGER

@<TRIPOS>ATOM
      1  N         23.3180   19.3490   20.8100 N.3    22  TYR22      -0.1241
      2  CA        22.6400   18.3970   21.6720 C.3    22  TYR22       0.1605
      3  C         23.6300   17.4800   22.4080 C.2    22  TYR22       0.2264
      4  O         24.5320   16.9080   21.7930 O.2    22  TYR22      -0.2867
      5  CB        21.6660   17.5540   20.8570 C.3    22  TYR22       0.0534
      6  CG        21.0660   16.4340   21.6580 C.ar   22  TYR22      -0.0201
      7  CD1       20.1430   16.6910   22.6690 C.ar   22  TYR22      -0.0009
      8  CD2       21.4520   15.1190   21.4390 C.ar   22  TYR22      -0.0009
      9  CE1       19.6330   15.6660   23.4500 C.ar   22  TYR22       0.0417
     10  CE2       20.9490   14.0890   22.2110 C.ar   22  TYR22       0.0417
     11  CZ        20.0410   14.3650   23.2140 C.ar   22  TYR22       0.1957
     12  OH        19.5640   13.3530   24.0120 O.3    22  TYR22      -0.2866
     13  N         19.4400   13.0000   28.0510 N.3    27  ALA27      -0.1245
     14  CA        18.3990   11.9640   27.9940 C.3    27  ALA27       0.1562
     15  C         18.2670   11.1560   29.2770 C.2    27  ALA27       0.2260
     16  O         17.2430   10.5090   29.4960 O.2    27  ALA27      -0.2867
     17  CB        18.6510   11.0310   26.8270 C.3    27  ALA27       0.0290
     18  N         15.1210   13.0170   14.6440 N.3   174  PHE174     -0.1241
     19  CA        16.4760   13.4580   14.9480 C.3   174  PHE174      0.1605
     20  C         17.3780   13.2090   13.7350 C.2   174  PHE174      0.2264
     21  O         17.3480   12.1260   13.1550 O.2   174  PHE174     -0.2867
     22  CB        16.9910   12.7300   16.1870 C.3   174  PHE174      0.0534
     23  CG        16.1080   12.9100   17.3830 C.ar  174  PHE174     -0.0203
     24  CD1       15.7190   14.1870   17.7780 C.ar  174  PHE174     -0.0042
     25  CD2       15.6270   11.8090   18.0840 C.ar  174  PHE174     -0.0042
     26  CE1       14.8680   14.3700   18.8400 C.ar  174  PHE174     -0.0003
     27  CE2       14.7650   11.9810   19.1620 C.ar  174  PHE174     -0.0003
     28  CZ        14.3860   13.2620   19.5360 C.ar  174  PHE174     -0.0000
     29  N         20.3800   12.3110   13.2810 N.3   176  ASP176     -0.1225
     30  CA        21.1550   11.0780   13.2980 C.3   176  ASP176      0.1805
     31  C         20.2890    9.8370   13.0460 C.2   176  ASP176      0.2597
     32  O         20.7660    8.7060   13.1110 O.2   176  ASP176     -0.2718
     33  CB        21.9540   10.9440   14.6040 C.3   176  ASP176      0.1424
     34  CG        21.0740   10.6860   15.8280 C.2   176  ASP176      0.3668
     35  OD1       19.8480   10.9480   15.7750 O.co2 176  ASP176     -0.2456
     36  OD2       21.6270   10.2310   16.8610 O.co2 176  ASP176     -0.2456
     37  N         19.0100   10.0650   12.7760 N.am  177  GLN177     -0.1979
     38  CA        18.0610    9.0020   12.4910 C.3   177  GLN177      0.1601
     39  C         17.2070    9.4410   11.3140 C.2   177  GLN177      0.2287
     40  O         16.0470    9.0540   11.2070 O.2   177  GLN177     -0.2864
     41  CB        17.1520    8.7660   13.6880 C.3   177  GLN177      0.0394
     42  CG        17.8060    8.0810   14.8510 C.3   177  GLN177      0.0908
     43  CD        16.8980    8.0440   16.0640 C.2   177  GLN177      0.2608
     44  OE1       17.2800    8.4870   17.1470 O.2   177  GLN177     -0.2717
     45  NE2       15.6760    7.5420   15.8830 N.am  177  GLN177     -0.0878
     46  N         13.6680   17.5600   28.2750 N.3   198  TYR198     -0.1227
     47  CA        14.4150   17.6380   27.0150 C.3   198  TYR198      0.1736
     48  C         13.6160   17.3060   25.7650 C.2   198  TYR198      0.2596
     49  O         14.1840   17.0040   24.7070 O.2   198  TYR198     -0.2718
     50  CB        15.6660   16.7660   27.1010 C.3   198  TYR198      0.0548
     51  CG        16.6350   17.4190   28.0090 C.ar  198  TYR198     -0.0200
     52  CD1       17.3020   18.5800   27.6020 C.ar  198  TYR198     -0.0009
     53  CD2       16.7700   16.9900   29.3180 C.ar  198  TYR198     -0.0009
     54  CE1       18.0590   19.2960   28.4800 C.ar  198  TYR198      0.0417
     55  CE2       17.5290   17.7090   30.2190 C.ar  198  TYR198      0.0417
     56  CZ        18.1640   18.8620   29.7930 C.ar  198  TYR198      0.1957
     57  OH        18.8820   19.6100   30.6830 O.3   198  TYR198     -0.2866
     58  N         12.2970   17.4250   25.8690 N.am  199  SER199     -0.1938
     59  CA        11.4320   17.1470   24.7410 C.3   199  SER199      0.2055
     60  C         11.6030   18.1960   23.6350 C.2   199  SER199      0.2642
     61  O         11.7530   19.4000   23.9030 O.2   199  SER199     -0.2714
     62  CB         9.9720   17.0950   25.1940 C.3   199  SER199      0.2130
     63  OG         9.1240   16.8230   24.0960 O.3   199  SER199     -0.2179
     64  N         11.5970   17.7290   22.3930 N.am  200  ALA200     -0.1977
     65  CA        11.7040   18.6040   21.2340 C.3   200  ALA200      0.1597
     66  C         10.3340   18.7330   20.5610 C.2   200  ALA200      0.2287
     67  O         10.2230   19.2480   19.4460 O.2   200  ALA200     -0.2864
     68  CB        12.7080   18.0370   20.2590 C.3   200  ALA200      0.0319
     69  N         16.6220   20.3330   16.4370 N.3   227  GLU227     -0.1245
     70  CA        17.3770   19.7430   17.5300 C.3   227  GLU227      0.1567
     71  C         18.1400   20.7640   18.3630 C.2   227  GLU227      0.2260
     72  O         18.0200   20.7950   19.5850 O.2   227  GLU227     -0.2867
     73  CB        18.3510   18.7160   16.9610 C.3   227  GLU227      0.0388
     74  CG        19.3620   18.1890   17.9470 C.3   227  GLU227      0.1160
     75  CD        20.3470   17.2480   17.2970 C.2   227  GLU227      0.3649
     76  OE1       21.3800   17.7350   16.7730 O.co2 227  GLU227     -0.2457
     77  OE2       20.0650   16.0280   17.3050 O.co2 227  GLU227     -0.2457
     78  N         17.1770   22.1530   21.9670 N.3   231  TYR231     -0.1241
     79  CA        18.1270   21.8310   23.0300 C.3   231  TYR231      0.1605
     80  C         18.5080   23.0960   23.7970 C.2   231  TYR231      0.2264
     81  O         18.6870   23.0790   25.0140 O.2   231  TYR231     -0.2867
     82  CB        19.3910   21.1510   22.4840 C.3   231  TYR231      0.0534
     83  CG        20.2370   20.5980   23.6120 C.ar  231  TYR231     -0.0201
     84  CD1       19.7580   19.5550   24.3940 C.ar  231  TYR231     -0.0009
     85  CD2       21.4750   21.1610   23.9480 C.ar  231  TYR231     -0.0009
     86  CE1       20.4670   19.0850   25.4870 C.ar  231  TYR231      0.0417
     87  CE2       22.1970   20.6930   25.0480 C.ar  231  TYR231      0.0417
     88  CZ        21.6770   19.6520   25.8120 C.ar  231  TYR231      0.1957
     89  OH        22.3240   19.1810   26.9320 O.3   231  TYR231     -0.2866
@<TRIPOS>BOND
     1    40    39    2
     2    39    38    1
     3    38    37    1
     4    38    41    1
     5    37    31   am
     6    31    32    2
     7    31    30    1
     8    21    20    2
     9    29    30    1
    10    30    33    1
    11    41    42    1
    12    20    19    1
    13    33    34    1
    14    18    19    1
    15    42    43    1
    16    19    22    1
    17    35    34   ar
    18    34    36   ar
    19    45    43   am
    20    43    44    2
    21    22    23    1
    22    69    70    1
    23    76    75   ar
    24    73    70    1
    25    73    74    1
    26    75    77   ar
    27    75    74    1
    28    23    24   ar
    29    23    25   ar
    30    70    71    1
    31    24    26   ar
    32    25    27   ar
    33    71    72    2
    34    26    28   ar
    35    27    28   ar
    36    67    66    2
    37    68    65    1
    38    66    65    1
    39     1     2    1
    40     5     6    1
    41     5     2    1
    42    65    64    1
    43     8     6   ar
    44     8    10   ar
    45     6     7   ar
    46     2     3    1
    47     4     3    2
    48    78    79    1
    49    10    11   ar
    50    64    60   am
    51    82    79    1
    52    82    83    1
    53     7     9   ar
    54    79    80    1
    55    11     9   ar
    56    11    12    1
    57    83    85   ar
    58    83    84   ar
    59    60    61    2
    60    60    59    1
    61    80    81    2
    62    85    87   ar
    63    63    62    1
    64    84    86   ar
    65    49    48    2
    66    59    62    1
    67    59    58    1
    68    87    88   ar
    69    86    88   ar
    70    48    58   am
    71    48    47    1
    72    88    89    1
    73    17    14    1
    74    47    50    1
    75    47    46    1
    76    50    51    1
    77    52    51   ar
    78    52    54   ar
    79    14    13    1
    80    14    15    1
    81    51    53   ar
    82    54    56   ar
    83    15    16    2
    84    53    55   ar
    85    56    55   ar
    86    56    57    1
