@<TRIPOS>MOLECULE
tmp/1bl4A00.pdb
 193 189 0 0 0
SMALL
GASTEIGER

@<TRIPOS>ATOM
      1  N         -3.4880   -3.3840   -5.3600 N.3    26  TYR26      -0.1241
      2  CA        -3.5350   -1.9570   -5.0890 C.3    26  TYR26       0.1605
      3  C         -3.6910   -1.1290   -6.3440 C.2    26  TYR26       0.2264
      4  O         -3.4010   -1.5850   -7.4590 O.2    26  TYR26      -0.2867
      5  CB        -2.2170   -1.5010   -4.4070 C.3    26  TYR26       0.0534
      6  CG        -1.0080   -1.4650   -5.3520 C.ar   26  TYR26      -0.0201
      7  CD1       -0.7480   -0.3470   -6.1580 C.ar   26  TYR26      -0.0009
      8  CD2       -0.1960   -2.5800   -5.5140 C.ar   26  TYR26      -0.0009
      9  CE1        0.2760   -0.3610   -7.1130 C.ar   26  TYR26       0.0417
     10  CE2        0.8290   -2.6010   -6.4580 C.ar   26  TYR26       0.0417
     11  CZ         1.0560   -1.4940   -7.2550 C.ar   26  TYR26       0.1957
     12  OH         2.0490   -1.5340   -8.2000 O.3    26  TYR26      -0.2866
     13  N         -2.5190    2.8510   -7.0970 N.3    28  GLY28      -0.1225
     14  CA        -1.8780    4.0230   -6.5590 C.3    28  GLY28       0.1811
     15  C         -2.2420    5.2300   -7.3870 C.2    28  GLY28       0.2280
     16  O         -2.2040    5.1990   -8.6240 O.2    28  GLY28      -0.2866
     17  N         -1.5250    6.2530  -11.2390 N.3    36  VAL36      -0.1231
     18  CA        -0.1010    6.1580  -11.5990 C.3    36  VAL36       0.1692
     19  C          0.2560    4.7050  -11.9100 C.2    36  VAL36       0.2592
     20  O          0.9920    4.4310  -12.8590 O.2    36  VAL36      -0.2718
     21  CB         0.8670    6.7200  -10.4900 C.3    36  VAL36       0.0266
     22  CG1        0.2790    7.9230   -9.7860 C.3    36  VAL36       0.0020
     23  CG2        1.2240    5.6800   -9.5090 C.3    36  VAL36       0.0020
     24  N         -0.2660    3.7820  -11.0990 N.am   37  ASP37      -0.1974
     25  CA        -0.0220    2.3580  -11.2770 C.3    37  ASP37       0.1709
     26  C         -1.0150    1.4870  -10.5150 C.2    37  ASP37       0.2293
     27  O         -1.5170    1.8700   -9.4610 O.2    37  ASP37      -0.2864
     28  CB         1.4020    1.9780  -10.8570 C.3    37  ASP37       0.1436
     29  CG         1.7440    0.5540  -11.2410 C.2    37  ASP37       0.3671
     30  OD1        1.6230    0.2430  -12.4450 O.co2  37  ASP37      -0.2456
     31  OD2        2.0870   -0.2610  -10.3540 O.co2  37  ASP37      -0.2456
     32  N         -2.4230   -5.8810  -13.9090 N.3    42  ARG42      -0.1245
     33  CA        -1.3420   -6.8160  -14.2550 C.3    42  ARG42       0.1563
     34  C         -1.3760   -8.3330  -14.2320 C.2    42  ARG42       0.2260
     35  O         -0.3400   -8.9310  -14.5030 O.2    42  ARG42      -0.2867
     36  CB        -0.0770   -6.4400  -13.4800 C.3    42  ARG42       0.0307
     37  CG         0.6580   -5.2470  -13.9880 C.3    42  ARG42       0.0489
     38  CD         2.0460   -5.1940  -13.3580 C.3    42  ARG42       0.2205
     39  NE         2.0500   -5.0920  -11.8960 N.pl3  42  ARG42      -0.0865
     40  CZ         2.1040   -3.9380  -11.2320 C.cat  42  ARG42       0.5346
     41  NH1        2.0980   -2.7900  -11.8900 N.pl3  42  ARG42       0.1354
     42  NH2        2.1240   -3.9240   -9.9100 N.pl3  42  ARG42       0.1354
     43  N          0.4580   -8.0090   -5.9120 N.3    46  PHE46      -0.1227
     44  CA         1.7680   -7.5210   -5.5340 C.3    46  PHE46       0.1736
     45  C          2.1340   -8.2160   -4.2150 C.2    46  PHE46       0.2595
     46  O          1.2630   -8.5170   -3.4000 O.2    46  PHE46      -0.2718
     47  CB         1.6990   -6.0020   -5.3560 C.3    46  PHE46       0.0547
     48  CG         2.9840   -5.3720   -4.8960 C.ar   46  PHE46      -0.0202
     49  CD1        3.9610   -5.0140   -5.8090 C.ar   46  PHE46      -0.0042
     50  CD2        3.1940   -5.0910   -3.5420 C.ar   46  PHE46      -0.0042
     51  CE1        5.1360   -4.3760   -5.3790 C.ar   46  PHE46      -0.0003
     52  CE2        4.3550   -4.4570   -3.1040 C.ar   46  PHE46      -0.0003
     53  CZ         5.3250   -4.0980   -4.0150 C.ar   46  PHE46      -0.0000
     54  N          3.4120   -8.5160   -4.0270 N.am   47  LYS47      -0.1966
     55  CA         3.8640   -9.1760   -2.8060 C.3    47  LYS47       0.1728
     56  C          5.0960   -8.5010   -2.2550 C.2    47  LYS47       0.2616
     57  O          5.9550   -8.0610   -3.0070 O.2    47  LYS47      -0.2715
     58  CB         4.2100  -10.6450   -3.0640 C.3    47  LYS47       0.0311
     59  CG         3.0600  -11.5020   -3.4810 C.3    47  LYS47       0.0038
     60  CD         3.5130  -12.9330   -3.5440 C.3    47  LYS47       0.0206
     61  CE         2.4150  -13.8400   -4.0220 C.3    47  LYS47       0.1093
     62  NZ         2.9140  -15.2350   -4.0960 N.3    47  LYS47      -0.1314
     63  N          5.1690   -8.4100   -0.9400 N.am   48  PHE48      -0.1974
     64  CA         6.3310   -7.8250   -0.2810 C.3    48  PHE48       0.1639
     65  C          6.4010   -8.3950    1.1270 C.2    48  PHE48       0.2290
     66  O          5.4050   -8.8870    1.6670 O.2    48  PHE48      -0.2864
     67  CB         6.2720   -6.2840   -0.2490 C.3    48  PHE48       0.0560
     68  CG         5.2780   -5.7170    0.7480 C.ar   48  PHE48      -0.0200
     69  CD1        3.9050   -5.7180    0.4760 C.ar   48  PHE48      -0.0042
     70  CD2        5.7210   -5.1740    1.9540 C.ar   48  PHE48      -0.0042
     71  CE1        2.9940   -5.1850    1.4010 C.ar   48  PHE48      -0.0003
     72  CE2        4.8220   -4.6420    2.8820 C.ar   48  PHE48      -0.0003
     73  CZ         3.4550   -4.6460    2.6070 C.ar   48  PHE48      -0.0000
     74  N         12.2560   -3.4040    4.5030 N.3    53  GLN53      -0.1231
     75  CA        12.4450   -2.1480    3.7800 C.3    53  GLN53       0.1698
     76  C         12.2790   -2.3450    2.2750 C.2    53  GLN53       0.2592
     77  O         13.0070   -1.7680    1.4620 O.2    53  GLN53      -0.2718
     78  CB        13.8050   -1.5190    4.0800 C.3    53  GLN53       0.0381
     79  CG        13.8980   -0.8450    5.4090 C.3    53  GLN53       0.0905
     80  CD        15.0910    0.0790    5.4900 C.2    53  GLN53       0.2608
     81  OE1       15.9440   -0.0710    6.3650 O.2    53  GLN53      -0.2717
     82  NE2       15.1600    1.0490    4.5780 N.am   53  GLN53      -0.0878
     83  N         11.3100   -3.1610    1.9010 N.am   54  GLU54      -0.1966
     84  CA        11.0700   -3.4100    0.4940 C.3    54  GLU54       0.1733
     85  C         10.1880   -2.3590   -0.1590 C.2    54  GLU54       0.2616
     86  O         10.2120   -2.2070   -1.3850 O.2    54  GLU54      -0.2715
     87  CB        10.4540   -4.7830    0.3060 C.3    54  GLU54       0.0429
     88  CG        11.3410   -5.9030    0.8390 C.3    54  GLU54       0.1163
     89  CD        10.8410   -7.2860    0.4860 C.2    54  GLU54       0.3649
     90  OE1        9.6820   -7.4090    0.0530 O.co2  54  GLU54      -0.2457
     91  OE2       11.6100   -8.2540    0.6430 O.co2  54  GLU54      -0.2457
     92  N          9.4560   -1.5970    0.6520 N.am   55  VAL55      -0.1963
     93  CA         8.5240   -0.5970    0.1260 C.3    55  VAL55       0.1727
     94  C          8.6450    0.7140    0.8750 C.2    55  VAL55       0.2616
     95  O          9.2650    0.7610    1.9330 O.2    55  VAL55      -0.2715
     96  CB         7.0440   -1.0860    0.2560 C.3    55  VAL55       0.0290
     97  CG1        6.7860   -2.2970   -0.6360 C.3    55  VAL55       0.0023
     98  CG2        6.7310   -1.4580    1.6960 C.3    55  VAL55       0.0023
     99  N          8.0580    1.7770    0.3280 N.am   56  ILE56      -0.1963
    100  CA         8.0690    3.0930    0.9740 C.3    56  ILE56       0.1727
    101  C          7.5160    2.9640    2.3960 C.2    56  ILE56       0.2616
    102  O          6.7070    2.0760    2.6820 O.2    56  ILE56      -0.2715
    103  CB         7.2070    4.1220    0.1930 C.3    56  ILE56       0.0290
    104  CG1        5.8050    3.5530   -0.0820 C.3    56  ILE56       0.0022
    105  CG2        7.8520    4.4660   -1.1370 C.3    56  ILE56       0.0023
    106  CD1        4.8710    4.5570   -0.7210 C.3    56  ILE56       0.0001
    107  N          7.9540    3.8470    3.2820 N.am   57  ARG57      -0.1977
    108  CA         7.5380    3.8370    4.6930 C.3    57  ARG57       0.1597
    109  C          6.0320    3.7870    4.9640 C.2    57  ARG57       0.2287
    110  O          5.5640    2.9760    5.7840 O.2    57  ARG57      -0.2864
    111  CB         8.1380    5.0510    5.4230 C.3    57  ARG57       0.0334
    112  CG         9.3820    4.7800    6.2750 C.3    57  ARG57       0.0492
    113  CD        10.6170    4.3720    5.4560 C.3    57  ARG57       0.2205
    114  NE        10.4300    3.0800    4.7910 N.pl3  57  ARG57      -0.0865
    115  CZ        10.5570    1.8940    5.3860 C.cat  57  ARG57       0.5346
    116  NH1       10.8930    1.8090    6.6710 N.pl3  57  ARG57       0.1354
    117  NH2       10.2890    0.7870    4.7020 N.pl3  57  ARG57       0.1354
    118  N          3.6670    2.5770    3.3990 N.3    59  TRP59      -0.1241
    119  CA         3.1120    1.2440    3.1630 C.3    59  TRP59       0.1605
    120  C          3.4320    0.2650    4.2890 C.2    59  TRP59       0.2264
    121  O          2.5710   -0.5220    4.6910 O.2    59  TRP59      -0.2867
    122  CB         3.6270    0.6800    1.8460 C.3    59  TRP59       0.0550
    123  CG         2.6330    0.7760    0.7560 C.ar   59  TRP59       0.0003
    124  CD1        2.0560    1.9130    0.2720 C.ar   59  TRP59       0.0946
    125  CD2        2.0540   -0.3160    0.0290 C.ar   59  TRP59       0.0152
    126  NE1        1.1490    1.5960   -0.7080 N.ar   59  TRP59      -0.2442
    127  CE2        1.1250    0.2350   -0.8770 C.ar   59  TRP59       0.0810
    128  CE3        2.2300   -1.7100    0.0600 C.ar   59  TRP59       0.0012
    129  CZ2        0.3700   -0.5510   -1.7450 C.ar   59  TRP59       0.0191
    130  CZ3        1.4800   -2.4960   -0.8020 C.ar   59  TRP59       0.0001
    131  CH2        0.5600   -1.9150   -1.6930 C.ar   59  TRP59       0.0015
    132  N          6.7750    8.7850    1.6110 N.3    81  ALA81      -0.1231
    133  CA         6.7700    8.1580    0.3100 C.3    81  ALA81       0.1694
    134  C          8.0530    8.4850   -0.4650 C.2    81  ALA81       0.2592
    135  O          9.1270    8.0260   -0.0770 O.2    81  ALA81      -0.2718
    136  CB         5.5230    8.5680   -0.4590 C.3    81  ALA81       0.0304
    137  N          7.9550    9.2990   -1.5150 N.am   82  TYR82      -0.1976
    138  CA         9.1170    9.6550   -2.3360 C.3    82  TYR82       0.1639
    139  C          9.7240   11.0250   -2.0380 C.2    82  TYR82       0.2290
    140  O         10.6400   11.4660   -2.7230 O.2    82  TYR82      -0.2864
    141  CB         8.7680    9.5260   -3.8220 C.3    82  TYR82       0.0560
    142  CG         8.3430    8.1270   -4.1920 C.ar   82  TYR82      -0.0198
    143  CD1        7.0280    7.7050   -4.0110 C.ar   82  TYR82      -0.0009
    144  CD2        9.2660    7.2070   -4.6660 C.ar   82  TYR82      -0.0009
    145  CE1        6.6470    6.3930   -4.2930 C.ar   82  TYR82       0.0417
    146  CE2        8.8930    5.9000   -4.9520 C.ar   82  TYR82       0.0417
    147  CZ         7.5880    5.5030   -4.7630 C.ar   82  TYR82       0.1957
    148  OH         7.2410    4.2090   -5.0510 O.3    82  TYR82      -0.2866
    149  N         10.1170   10.3500   -8.2080 N.3    87  HIS87      -0.1241
    150  CA        10.7300    9.3540   -9.0850 C.3    87  HIS87       0.1621
    151  C         10.3550    9.7180  -10.5240 C.2    87  HIS87       0.2264
    152  O          9.2030    9.5820  -10.9230 O.2    87  HIS87      -0.2867
    153  CB        10.2340    7.9410   -8.7330 C.3    87  HIS87       0.0745
    154  CG        10.9970    6.8380   -9.4120 C.ar   87  HIS87       0.0817
    155  ND1       11.8000    5.9530   -8.7250 N.ar   87  HIS87      -0.2268
    156  CD2       11.0480    6.4570  -10.7120 C.ar   87  HIS87       0.1154
    157  CE1       12.3060    5.0720   -9.5690 C.ar   87  HIS87       0.1986
    158  NE2       11.8650    5.3560  -10.7820 N.ar   87  HIS87      -0.2212
    159  N          7.1890    8.8400  -13.0470 N.3    90  ILE90      -0.1231
    160  CA         6.1500    8.1190  -12.3190 C.3    90  ILE90       0.1692
    161  C          5.5370    8.9560  -11.1940 C.2    90  ILE90       0.2591
    162  O          4.3270    9.1730  -11.1560 O.2    90  ILE90      -0.2718
    163  CB         6.7000    6.7910  -11.7170 C.3    90  ILE90       0.0266
    164  CG1        7.2850    5.8970  -12.8220 C.3    90  ILE90       0.0019
    165  CG2        5.5860    6.0350  -11.0060 C.3    90  ILE90       0.0020
    166  CD1        7.8060    4.5400  -12.3300 C.3    90  ILE90       0.0001
    167  N          6.3870    9.4220  -10.2840 N.am   91  ILE91      -0.1980
    168  CA         5.9560   10.2080   -9.1280 C.3    91  ILE91       0.1595
    169  C          6.5930   11.5950   -9.1380 C.2    91  ILE91       0.2287
    170  O          7.8170   11.7220   -9.1580 O.2    91  ILE91      -0.2864
    171  CB         6.3910    9.5320   -7.7840 C.3    91  ILE91       0.0276
    172  CG1        5.9130    8.0750   -7.6990 C.3    91  ILE91       0.0022
    173  CG2        5.9240   10.3620   -6.5920 C.3    91  ILE91       0.0022
    174  CD1        4.4100    7.8840   -7.7240 C.3    91  ILE91       0.0001
    175  N          0.4420   10.6540   -1.9570 N.3    97  LEU97      -0.1245
    176  CA        -0.1320    9.5620   -2.7290 C.3    97  LEU97       0.1561
    177  C         -1.2890    8.8990   -1.9920 C.2    97  LEU97       0.2260
    178  O         -1.3270    8.8490   -0.7470 O.2    97  LEU97      -0.2867
    179  CB         0.9200    8.4970   -3.0570 C.3    97  LEU97       0.0270
    180  CG         2.2790    8.9470   -3.5970 C.3    97  LEU97       0.0019
    181  CD1        3.2130    7.7390   -3.6550 C.3    97  LEU97       0.0001
    182  CD2        2.1420    9.6010   -4.9670 C.3    97  LEU97       0.0001
    183  N         -3.5190    5.2980   -1.9900 N.3    99  PHE99      -0.1241
    184  CA        -3.5660    3.9310   -2.4730 C.3    99  PHE99       0.1605
    185  C         -4.8350    3.2530   -2.0200 C.2    99  PHE99       0.2264
    186  O         -5.2610    3.4110   -0.8730 O.2    99  PHE99      -0.2867
    187  CB        -2.3970    3.1050   -1.9160 C.3    99  PHE99       0.0534
    188  CG        -1.0510    3.4390   -2.5070 C.ar   99  PHE99      -0.0203
    189  CD1       -0.2840    4.4870   -1.9890 C.ar   99  PHE99      -0.0042
    190  CD2       -0.5140    2.6440   -3.5280 C.ar   99  PHE99      -0.0042
    191  CE1        0.9980    4.7370   -2.4720 C.ar   99  PHE99      -0.0003
    192  CE2        0.7780    2.8800   -4.0260 C.ar   99  PHE99      -0.0003
    193  CZ         1.5400    3.9370   -3.4910 C.ar   99  PHE99      -0.0000
@<TRIPOS>BOND
     1    35    34    2
     2    33    34    1
     3    33    32    1
     4    33    36    1
     5    37    36    1
     6    37    38    1
     7    38    39    1
     8   159   160    1
     9    20    19    2
    10   164   166    1
    11   164   163    1
    12    30    29   ar
    13   160   163    1
    14   160   161    1
    15    19    18    1
    16    19    24   am
    17    39    40    2
    18    41    40    1
    19   163   165    1
    20    18    17    1
    21    18    21    1
    22    25    24    1
    23    25    28    1
    24    25    26    1
    25    29    28    1
    26    29    31   ar
    27    40    42    1
    28   161   162    2
    29   161   167   am
    30   152   151    2
    31   158   156   ar
    32   158   157   ar
    33   156   154   ar
    34   151   150    1
    35    26    27    2
    36    21    22    1
    37    21    23    1
    38   167   168    1
    39   157   155   ar
    40   154   153    1
    41   154   155   ar
    42   170   169    2
    43   169   168    1
    44   168   171    1
    45   150   153    1
    46   150   149    1
    47    16    15    2
    48    12    11    1
    49   171   172    1
    50   171   173    1
    51   174   172    1
    52     4     3    2
    53    15    14    1
    54    11     9   ar
    55    11    10   ar
    56     9     7   ar
    57    13    14    1
    58    10     8   ar
    59     3     2    1
    60     7     6   ar
    61    43    44    1
    62    49    51   ar
    63    49    48   ar
    64    44    47    1
    65    44    45    1
    66     8     6   ar
    67    51    53   ar
    68     1     2    1
    69    47    48    1
    70     6     5    1
    71     2     5    1
    72   148   147    1
    73   182   180    1
    74   146   147   ar
    75   146   144   ar
    76    48    50   ar
    77   147   145   ar
    78   144   142   ar
    79   145   143   ar
    80    45    54   am
    81    45    46    2
    82   142   143   ar
    83   142   141    1
    84    62    61    1
    85    54    55    1
    86   192   190   ar
    87   192   193   ar
    88    61    60    1
    89    53    52   ar
    90   141   138    1
    91   181   180    1
    92   180   179    1
    93    60    59    1
    94    50    52   ar
    95   190   188   ar
    96   193   191   ar
    97    59    58    1
    98    58    55    1
    99   179   176    1
   100    57    56    2
   101    55    56    1
   102   176   177    1
   103   176   175    1
   104   140   139    2
   105   188   189   ar
   106   188   187    1
   107   184   185    1
   108   184   183    1
   109   184   187    1
   110   191   189   ar
   111   138   139    1
   112   138   137    1
   113    56    63   am
   114   185   186    2
   115   177   178    2
   116   129   131   ar
   117   129   127   ar
   118   131   130   ar
   119   137   134   am
   120    86    85    2
   121   105   103    1
   122    63    64    1
   123   127   126   ar
   124   127   125   ar
   125   130   128   ar
   126   106   104    1
   127   126   124   ar
   128    97    96    1
   129   134   135    2
   130   134   133    1
   131   136   133    1
   132    64    67    1
   133    64    65    1
   134    67    68    1
   135    85    84    1
   136    85    92   am
   137   104   103    1
   138   125   128   ar
   139   125   123   ar
   140    90    89   ar
   141    93    96    1
   142    93    92    1
   143    93    94    1
   144   103   100    1
   145    96    98    1
   146   124   123   ar
   147    87    84    1
   148    87    88    1
   149   133   132    1
   150    99    94   am
   151    99   100    1
   152    69    68   ar
   153    69    71   ar
   154    89    91   ar
   155    89    88    1
   156    84    83    1
   157    68    70   ar
   158   123   122    1
   159    94    95    2
   160   100   101    1
   161    65    66    2
   162    71    73   ar
   163    77    76    2
   164   122   119    1
   165    83    76   am
   166    70    72   ar
   167    76    75    1
   168   101   102    2
   169   101   107   am
   170    73    72   ar
   171   119   118    1
   172   119   120    1
   173   107   108    1
   174    75    78    1
   175    75    74    1
   176    78    79    1
   177   120   121    2
   178    82    80   am
   179   108   109    1
   180   108   111    1
   181   117   115    1
   182   114   115    2
   183   114   113    1
   184   109   110    2
   185   115   116    1
   186    79    80    1
   187   111   112    1
   188   113   112    1
   189    80    81    2
