@<TRIPOS>MOLECULE
tmp/1bl6A00.pdb
 147 137 0 0 0
SMALL
GASTEIGER

@<TRIPOS>ATOM
      1  N         -1.0680   10.3610   20.6270 N.3    27  VAL27      -0.1231
      2  CA        -2.0220   10.3080   21.7240 C.3    27  VAL27       0.1692
      3  C         -2.2710   11.6830   22.3710 C.2    27  VAL27       0.2592
      4  O         -2.5490   11.7900   23.5770 O.2    27  VAL27      -0.2718
      5  CB        -1.5680    9.2430   22.7690 C.3    27  VAL27       0.0266
      6  CG1       -0.9020    9.8880   23.9780 C.3    27  VAL27       0.0020
      7  CG2       -2.7510    8.4010   23.1750 C.3    27  VAL27       0.0020
      8  N         -2.1870   12.7310   21.5490 N.am   28  GLY28      -0.1957
      9  CA        -2.4260   14.0810   22.0320 C.3    28  GLY28       0.1869
     10  C         -1.1960   14.9470   22.2300 C.2    28  GLY28       0.2309
     11  O         -0.3860   14.6940   23.1250 O.2    28  GLY28      -0.2863
     12  N          3.0850   22.0650   25.5140 N.3    32  TYR32      -0.1241
     13  CA         4.2800   21.6600   26.2460 C.3    32  TYR32       0.1605
     14  C          5.0760   20.6030   25.4550 C.2    32  TYR32       0.2264
     15  O          6.3080   20.6550   25.3860 O.2    32  TYR32      -0.2867
     16  CB         3.8850   21.1210   27.6330 C.3    32  TYR32       0.0534
     17  CG         3.0430   19.8550   27.6160 C.ar   32  TYR32      -0.0201
     18  CD1        1.7890   19.8310   27.0010 C.ar   32  TYR32      -0.0009
     19  CD2        3.5050   18.6780   28.2110 C.ar   32  TYR32      -0.0009
     20  CE1        1.0150   18.6640   26.9750 C.ar   32  TYR32       0.0417
     21  CE2        2.7370   17.5060   28.1900 C.ar   32  TYR32       0.0417
     22  CZ         1.4950   17.5080   27.5690 C.ar   32  TYR32       0.1957
     23  OH         0.7400   16.3570   27.5270 O.3    32  TYR32      -0.2866
     24  N          2.8500   14.0200   22.2900 N.3    35  VAL35      -0.1245
     25  CA         2.8730   12.7240   22.9690 C.3    35  VAL35       0.1561
     26  C          2.4810   11.5580   22.0500 C.2    35  VAL35       0.2260
     27  O          1.6990   11.7160   21.1030 O.2    35  VAL35      -0.2867
     28  CB         1.9750   12.7180   24.2260 C.3    35  VAL35       0.0252
     29  CG1        2.0020   11.3370   24.8950 C.3    35  VAL35       0.0019
     30  CG2        2.4590   13.7730   25.1990 C.3    35  VAL35       0.0019
     31  N          4.4290    5.8930   27.1350 N.3    48  ALA48      -0.1245
     32  CA         4.0960    7.2240   26.6400 C.3    48  ALA48       0.1562
     33  C          5.4370    7.9000   26.3770 C.2    48  ALA48       0.2260
     34  O          6.2790    7.9840   27.2700 O.2    48  ALA48      -0.2867
     35  CB         3.3140    8.0050   27.6930 C.3    48  ALA48       0.0290
     36  N          6.9860   11.4020   25.2450 N.3    50  LYS50      -0.1245
     37  CA         6.7080   12.8110   24.9820 C.3    50  LYS50       0.1561
     38  C          7.9100   13.4830   24.3370 C.2    50  LYS50       0.2260
     39  O          9.0230   13.4060   24.8490 O.2    50  LYS50      -0.2867
     40  CB         6.3590   13.5260   26.2900 C.3    50  LYS50       0.0271
     41  CG         5.7210   14.9010   26.1140 C.3    50  LYS50       0.0035
     42  CD         6.0800   15.8480   27.2660 C.3    50  LYS50       0.0206
     43  CE         5.4100   15.4210   28.5640 C.3    50  LYS50       0.1093
     44  NZ         5.7200   16.3530   29.6790 N.3    50  LYS50      -0.1314
     45  N         12.1620   19.8980   34.5780 N.3    68  GLU68      -0.1245
     46  CA        11.3390   18.7100   34.4080 C.3    68  GLU68       0.1567
     47  C         12.1290   17.4100   34.3800 C.2    68  GLU68       0.2260
     48  O         11.7090   16.4230   34.9740 O.2    68  GLU68      -0.2867
     49  CB        10.4910   18.8110   33.1420 C.3    68  GLU68       0.0388
     50  CG         9.4730   17.6820   33.0500 C.3    68  GLU68       0.1160
     51  CD         8.6000   17.7410   31.8090 C.2    68  GLU68       0.3649
     52  OE1        8.7080   18.7140   31.0370 O.co2  68  GLU68      -0.2457
     53  OE2        7.7960   16.8080   31.6040 O.co2  68  GLU68      -0.2457
     54  N         11.6720   14.5160   37.0840 N.3    72  LEU72      -0.1245
     55  CA        11.2810   13.1730   36.6790 C.3    72  LEU72       0.1561
     56  C         12.3800   12.1630   37.0020 C.2    72  LEU72       0.2260
     57  O         12.1000   11.0100   37.3420 O.2    72  LEU72      -0.2867
     58  CB        10.9790   13.1410   35.1780 C.3    72  LEU72       0.0270
     59  CG         9.5430   13.1820   34.6360 C.3    72  LEU72       0.0019
     60  CD1        8.5500   13.5980   35.6850 C.3    72  LEU72       0.0001
     61  CD2        9.5060   14.1570   33.4910 C.3    72  LEU72       0.0001
     62  N          4.7360    9.5940   39.1720 N.3    81  ILE81      -0.1245
     63  CA         5.2040    9.3590   37.8040 C.3    81  ILE81       0.1561
     64  C          6.7110    9.1370   37.7970 C.2    81  ILE81       0.2260
     65  O          7.4510    9.9140   38.3970 O.2    81  ILE81      -0.2867
     66  CB         4.9110   10.5620   36.8690 C.3    81  ILE81       0.0252
     67  CG1        5.5560   10.3140   35.5060 C.3    81  ILE81       0.0019
     68  CG2        5.4800   11.8640   37.4600 C.3    81  ILE81       0.0019
     69  CD1        5.3150   11.4190   34.5060 C.3    81  ILE81       0.0001
     70  N         10.4700    8.0490   35.5510 N.3    83  LEU83      -0.1245
     71  CA        11.1460    8.1500   34.2590 C.3    83  LEU83       0.1561
     72  C         11.6860    6.7810   33.8650 C.2    83  LEU83       0.2260
     73  O         12.6120    6.2660   34.4980 O.2    83  LEU83      -0.2867
     74  CB        12.3240    9.1330   34.3410 C.3    83  LEU83       0.0270
     75  CG        12.5170   10.2800   33.3420 C.3    83  LEU83       0.0019
     76  CD1       14.0080   10.4660   33.0820 C.3    83  LEU83       0.0001
     77  CD2       11.7720   10.0050   32.0470 C.3    83  LEU83       0.0001
     78  N         10.9920   11.8780   26.4740 N.3   101  LEU101     -0.1231
     79  CA        10.8840   11.2870   27.8000 C.3   101  LEU101      0.1693
     80  C          9.8900   10.1580   27.7180 C.2   101  LEU101      0.2592
     81  O          8.8490   10.2880   27.0690 O.2   101  LEU101     -0.2718
     82  CB        10.4070   12.3260   28.8150 C.3   101  LEU101      0.0284
     83  CG        11.1680   13.6530   28.8110 C.3   101  LEU101      0.0019
     84  CD1       10.2730   14.7850   29.2800 C.3   101  LEU101      0.0001
     85  CD2       12.3880   13.5040   29.7050 C.3   101  LEU101      0.0001
     86  N         10.2180    9.0490   28.3700 N.am  102  VAL102     -0.1966
     87  CA         9.3540    7.8790   28.3600 C.3   102  VAL102      0.1727
     88  C          8.9020    7.5240   29.7590 C.2   102  VAL102      0.2617
     89  O          9.6720    7.6420   30.7150 O.2   102  VAL102     -0.2715
     90  CB        10.0650    6.6320   27.7740 C.3   102  VAL102      0.0290
     91  CG1        9.0460    5.5200   27.5730 C.3   102  VAL102      0.0023
     92  CG2       10.7540    6.9730   26.4660 C.3   102  VAL102      0.0023
     93  N          7.6470    7.0970   29.8730 N.am  103  THR103     -0.1937
     94  CA         7.0850    6.6890   31.1570 C.3   103  THR103      0.2028
     95  C          5.9090    5.7650   30.8970 C.2   103  THR103      0.2642
     96  O          5.3440    5.7660   29.7960 O.2   103  THR103     -0.2714
     97  CB         6.6230    7.9110   32.0130 C.3   103  THR103      0.1808
     98  OG1        6.4550    7.4980   33.3800 O.3   103  THR103     -0.2208
     99  CG2        5.3100    8.4890   31.4810 C.3   103  THR103      0.0379
    100  N          5.5520    4.9660   31.8980 N.am  104  HIS104     -0.1959
    101  CA         4.4390    4.0440   31.7430 C.3   104  HIS104      0.1787
    102  C          3.2090    4.7700   31.2160 C.2   104  HIS104      0.2620
    103  O          2.8380    5.8260   31.7100 O.2   104  HIS104     -0.2715
    104  CB         4.1070    3.3670   33.0730 C.3   104  HIS104      0.0785
    105  CG         5.2960    2.7860   33.7700 C.ar  104  HIS104      0.0821
    106  ND1        6.1730    3.5520   34.5120 N.ar  104  HIS104     -0.2267
    107  CD2        5.7460    1.5110   33.8570 C.ar  104  HIS104      0.1154
    108  CE1        7.1100    2.7740   35.0260 C.ar  104  HIS104      0.1986
    109  NE2        6.8740    1.5310   34.6440 N.ar  104  HIS104     -0.2212
    110  N          2.6040    4.2050   30.1790 N.am  105  LEU105     -0.1963
    111  CA         1.3950    4.7660   29.5900 C.3   105  LEU105      0.1728
    112  C          0.2800    4.6160   30.6270 C.2   105  LEU105      0.2616
    113  O         -0.0730    3.4980   31.0110 O.2   105  LEU105     -0.2715
    114  CB         1.0330    3.9880   28.3180 C.3   105  LEU105      0.0311
    115  CG        -0.0320    4.5120   27.3510 C.3   105  LEU105      0.0022
    116  CD1        0.4480    5.7770   26.6670 C.3   105  LEU105      0.0001
    117  CD2       -0.3320    3.4440   26.3170 C.3   105  LEU105      0.0001
    118  N         -0.2490    5.7360   31.1080 N.am  106  MET106     -0.1977
    119  CA        -1.3320    5.6940   32.0860 C.3   106  MET106      0.1605
    120  C         -2.6240    5.8260   31.2780 C.2   106  MET106      0.2287
    121  O         -2.7680    6.7520   30.4760 O.2   106  MET106     -0.2864
    122  CB        -1.1970    6.8390   33.1050 C.3   106  MET106      0.0413
    123  CG         0.2230    7.0460   33.6850 C.3   106  MET106      0.0598
    124  SD         0.9870    5.7220   34.7160 S.3   106  MET106     -0.1393
    125  CE        -0.4130    4.6640   35.1270 C.3   106  MET106      0.0692
    126  N         -7.3610   15.3490   36.8800 N.3   151  SER151     -0.1217
    127  CA        -6.7200   15.0590   35.6140 C.3   151  SER151      0.1889
    128  C         -5.2140   14.8250   35.7340 C.2   151  SER151      0.2288
    129  O         -4.5600   14.4350   34.7590 O.2   151  SER151     -0.2866
    130  CB        -7.0110   16.1710   34.6030 C.3   151  SER151      0.2089
    131  OG        -6.7670   17.4570   35.1510 O.3   151  SER151     -0.2183
    132  N          1.0310   12.8710   38.7030 N.3   164  LEU164     -0.1231
    133  CA         1.8050   13.3730   37.5710 C.3   164  LEU164      0.1693
    134  C          1.5560   14.8460   37.3290 C.2   164  LEU164      0.2592
    135  O          0.8970   15.5120   38.1220 O.2   164  LEU164     -0.2718
    136  CB         1.4460   12.6110   36.2960 C.3   164  LEU164      0.0284
    137  CG         0.0020   12.1280   36.2120 C.3   164  LEU164      0.0019
    138  CD1       -0.7070   12.7830   35.0400 C.3   164  LEU164      0.0001
    139  CD2        0.0050   10.6130   36.0730 C.3   164  LEU164      0.0001
    140  N          2.1020   15.3480   36.2240 N.am  165  ASP165     -0.1974
    141  CA         1.9200   16.7360   35.8190 C.3   165  ASP165      0.1709
    142  C          2.2490   17.7190   36.9170 C.2   165  ASP165      0.2293
    143  O          1.4350   18.5830   37.2290 O.2   165  ASP165     -0.2864
    144  CB         0.4730   16.9630   35.3950 C.3   165  ASP165      0.1436
    145  CG         0.3260   17.2150   33.9140 C.2   165  ASP165      0.3671
    146  OD1        1.2690   16.8730   33.1540 O.co2 165  ASP165     -0.2456
    147  OD2       -0.7460   17.7530   33.5230 O.co2 165  ASP165     -0.2456
@<TRIPOS>BOND
     1     1     2    1
     2    27    26    2
     3     8     9    1
     4     8     3   am
     5     2     3    1
     6     2     5    1
     7     9    10    1
     8    26    25    1
     9    10    11    2
    10    24    25    1
    11     3     4    2
    12     5     7    1
    13     5     6    1
    14    25    28    1
    15    28    29    1
    16    28    30    1
    17    38    39    2
    18    38    37    1
    19    37    36    1
    20    37    40    1
    21    15    14    2
    22    14    13    1
    23    12    13    1
    24    41    40    1
    25    41    42    1
    26    13    16    1
    27   117   115    1
    28    33    32    1
    29    33    34    2
    30    92    90    1
    31    78    79    1
    32    32    31    1
    33    32    35    1
    34   116   115    1
    35    20    18   ar
    36    20    22   ar
    37    18    17   ar
    38    81    80    2
    39    42    43    1
    40   115   114    1
    41    23    22    1
    42    22    21   ar
    43    91    90    1
    44    17    16    1
    45    17    19   ar
    46    80    79    1
    47    80    86   am
    48    90    87    1
    49    79    82    1
    50    21    19   ar
    51   114   111    1
    52    87    86    1
    53    87    88    1
    54    43    44    1
    55    83    82    1
    56    83    84    1
    57    83    85    1
    58   111   110    1
    59   111   112    1
    60    88    93   am
    61    88    89    2
    62    96    95    2
    63    93    94    1
    64   110   102   am
    65   121   120    2
    66   112   113    2
    67   112   118   am
    68    95    94    1
    69    95   100   am
    70    52    51   ar
    71   118   119    1
    72    94    97    1
    73   102   103    2
    74   102   101    1
    75   120   119    1
    76    99    97    1
    77    53    51   ar
    78   101   100    1
    79   101   104    1
    80    51    50    1
    81    97    98    1
    82    77    75    1
    83   119   122    1
    84    50    49    1
    85   104   105    1
    86    76    75    1
    87   122   123    1
    88    49    46    1
    89   146   145   ar
    90    75    74    1
    91    61    59    1
    92   147   145   ar
    93   123   124    1
    94   105   107   ar
    95   105   106   ar
    96   107   109   ar
    97    72    71    1
    98    72    73    2
    99   145   144    1
   100    71    74    1
   101    71    70    1
   102    47    46    1
   103    47    48    2
   104    46    45    1
   105    69    67    1
   106   106   108   ar
   107   130   131    1
   108   130   127    1
   109    59    58    1
   110    59    60    1
   111   109   108   ar
   112   124   125    1
   113   129   128    2
   114   138   137    1
   115    58    55    1
   116   144   141    1
   117    67    66    1
   118   127   128    1
   119   127   126    1
   120   141   140    1
   121   141   142    1
   122   139   137    1
   123   137   136    1
   124   140   134   am
   125   136   133    1
   126    55    56    1
   127    55    54    1
   128    66    68    1
   129    66    63    1
   130   142   143    2
   131    56    57    2
   132   134   133    1
   133   134   135    2
   134   133   132    1
   135    64    63    1
   136    64    65    2
   137    63    62    1
