@<TRIPOS>MOLECULE
tmp/1blcA01.pdb
 83 75 0 0 0
SMALL
GASTEIGER

@<TRIPOS>ATOM
      1  N          6.2660  -16.2370  -12.3560 N.3    38  ALA38      -0.1231
      2  CA         5.4690  -15.0600  -12.0020 C.3    38  ALA38       0.1694
      3  C          4.6240  -14.6130  -13.2160 C.2    38  ALA38       0.2589
      4  O          4.0740  -15.4930  -13.9300 O.2    38  ALA38      -0.2718
      5  CB         6.3700  -13.9390  -11.4960 C.3    38  ALA38       0.0304
      6  N          4.5860  -13.2950  -13.4480 N.am   39  SER39      -0.2006
      7  CA         3.8130  -12.7800  -14.5420 C.3    39  SER39       0.1610
      8  C          4.1410  -13.2420  -15.9090 C.3    39  SER39       0.2063
      9  O          3.2970  -12.8660  -16.7900 O.3    39  SER39      -0.2184
     10  CB         3.7470  -11.2670  -14.5980 C.3    39  SER39       0.2063
     11  OG         3.7060  -10.7840  -13.2300 O.3    39  SER39      -0.2184
     12  N          1.4720  -14.9760  -17.7710 N.3    42  LYS42      -0.1245
     13  CA         0.2350  -14.3130  -18.3210 C.3    42  LYS42       0.1561
     14  C          0.1290  -14.5360  -19.8030 C.2    42  LYS42       0.2260
     15  O         -0.9590  -14.5880  -20.4100 O.2    42  LYS42      -0.2867
     16  CB         0.2330  -12.7910  -18.0090 C.3    42  LYS42       0.0271
     17  CG        -0.0180  -12.6500  -16.4600 C.3    42  LYS42       0.0035
     18  CD        -0.0080  -11.1340  -16.0850 C.3    42  LYS42       0.0206
     19  CE        -0.6730  -10.9920  -14.6810 C.3    42  LYS42       0.1093
     20  NZ         0.3030  -10.8600  -13.5850 N.3    42  LYS42      -0.1314
     21  N         -3.1400   -5.4480   -7.3510 N.3    72  TYR72      -0.1241
     22  CA        -2.4090   -5.0430   -8.5440 C.3    72  TYR72       0.1605
     23  C         -3.1980   -5.4970   -9.7970 C.2    72  TYR72       0.2264
     24  O         -2.8530   -6.4410  -10.5030 O.2    72  TYR72      -0.2867
     25  CB        -0.9680   -5.5970   -8.5760 C.3    72  TYR72       0.0534
     26  CG        -0.2560   -5.7250   -7.2410 C.ar   72  TYR72      -0.0201
     27  CD1        0.2910   -4.6290   -6.5910 C.ar   72  TYR72      -0.0009
     28  CD2       -0.2380   -6.9560   -6.5720 C.ar   72  TYR72      -0.0009
     29  CE1        0.9700   -4.7450   -5.3640 C.ar   72  TYR72       0.0417
     30  CE2        0.4120   -7.1110   -5.3620 C.ar   72  TYR72       0.0417
     31  CZ         1.0270   -5.9880   -4.7680 C.ar   72  TYR72       0.1957
     32  OH         1.7220   -6.2330   -3.5840 O.3    72  TYR72      -0.2866
     33  N          0.0280   -6.2380  -16.9260 N.3    97  SER97      -0.1217
     34  CA         0.1990   -7.3810  -16.0360 C.3    97  SER97       0.1889
     35  C         -0.9440   -7.3240  -14.9810 C.2    97  SER97       0.2288
     36  O         -0.7040   -7.6130  -13.7600 O.2    97  SER97      -0.2866
     37  CB         1.5720   -7.2900  -15.2260 C.3    97  SER97       0.2089
     38  OG         1.9250   -8.6800  -14.9330 O.3    97  SER97      -0.2183
     39  N         -3.6250   -8.5170  -12.5660 N.3    99  ASN99      -0.1296
     40  CA        -3.8150   -9.7660  -11.8220 C.3    99  ASN99       0.1339
     41  C         -5.2790  -10.2810  -11.8950 C.3    99  ASN99       0.2014
     42  O         -5.3950  -11.5350  -12.0280 O.3    99  ASN99      -0.2188
     43  CB        -3.2530   -9.6540  -10.4000 C.3    99  ASN99       0.1102
     44  CG        -1.6830   -9.7530  -10.4080 C.2    99  ASN99       0.2623
     45  OD1       -1.0670  -10.1800  -11.3610 O.2    99  ASN99      -0.2716
     46  ND2       -1.0770   -9.2620   -9.3280 N.am   99  ASN99      -0.0877
     47  N         -2.8110  -13.5630   -6.3860 N.3   134  ILE134     -0.1245
     48  CA        -1.4570  -13.0870   -6.5820 C.3   134  ILE134      0.1561
     49  C         -0.4210  -14.0220   -5.9510 C.2   134  ILE134      0.2260
     50  O          0.7900  -13.6690   -5.8810 O.2   134  ILE134     -0.2867
     51  CB        -1.3880  -11.6280   -5.9770 C.3   134  ILE134      0.0252
     52  CG1       -1.4980  -11.7280   -4.4230 C.3   134  ILE134      0.0019
     53  CG2       -2.3920  -10.5850   -6.5060 C.3   134  ILE134      0.0019
     54  CD1       -0.9760  -10.4410   -3.7090 C.3   134  ILE134      0.0001
     55  N          2.9220  -16.0520   -7.4930 N.3   137  ASN137     -0.1240
     56  CA         4.1480  -15.2590   -7.5640 C.3   137  ASN137      0.1653
     57  C          4.9270  -15.2210   -6.2400 C.2   137  ASN137      0.2266
     58  O          5.7060  -14.2740   -5.9820 O.2   137  ASN137     -0.2867
     59  CB         3.7680  -13.7810   -7.9290 C.3   137  ASN137      0.1155
     60  CG         2.8950  -13.5550   -9.1060 C.2   137  ASN137      0.2627
     61  OD1        3.3040  -13.6280  -10.2890 O.2   137  ASN137     -0.2716
     62  ND2        1.5960  -13.1730   -8.9170 N.am  137  ASN137     -0.0877
     63  N          8.2420  -10.4220  -15.6140 N.3   203  GLY203     -0.1210
     64  CA         7.5960  -10.8870  -14.3820 C.3   203  GLY203      0.1956
     65  C          8.6430  -10.6640  -13.2660 C.2   203  GLY203      0.2611
     66  O          9.8420  -10.4790  -13.5720 O.2   203  GLY203     -0.2717
     67  N          8.1170  -10.7390  -12.0590 N.am  204  GLN204     -0.1979
     68  CA         8.8820  -10.6440  -10.8190 C.3   204  GLN204      0.1601
     69  C          8.1040  -11.2000   -9.6260 C.2   204  GLN204      0.2287
     70  O          6.9850  -10.6870   -9.3010 O.2   204  GLN204     -0.2864
     71  CB         9.2620   -9.2000  -10.4830 C.3   204  GLN204      0.0394
     72  CG        10.5000   -9.2040   -9.6000 C.3   204  GLN204      0.0908
     73  CD        10.7880   -7.8770   -8.9520 C.2   204  GLN204      0.2608
     74  OE1       10.8010   -6.8010   -9.5270 O.2   204  GLN204     -0.2717
     75  NE2       11.0930   -7.9820   -7.6430 N.am  204  GLN204     -0.0878
     76  N          7.8210  -11.9580   -5.5570 N.3   206  ILE206     -0.1245
     77  CA         8.0600  -11.1820   -4.3440 C.3   206  ILE206      0.1561
     78  C          9.4290  -11.4250   -3.7160 C.2   206  ILE206      0.2260
     79  O         10.0340  -10.4950   -3.1750 O.2   206  ILE206     -0.2867
     80  CB         6.8430  -11.4670   -3.3230 C.3   206  ILE206      0.0252
     81  CG1        5.5470  -11.2620   -4.0890 C.3   206  ILE206      0.0019
     82  CG2        7.0410  -10.5240   -2.0810 C.3   206  ILE206      0.0019
     83  CD1        4.1520  -11.3590   -3.4130 C.3   206  ILE206      0.0001
@<TRIPOS>BOND
     1    15    14    2
     2    14    13    1
     3    13    16    1
     4    13    12    1
     5    16    17    1
     6    33    34    1
     7     9     8    1
     8    17    18    1
     9    18    19    1
    10    34    37    1
    11    34    35    1
    12     8     7    1
    13    63    64    1
    14    37    38    1
    15    35    36    2
    16    19    20    1
    17    10     7    1
    18    10    11    1
    19     7     6    1
    20    64    65    1
    21     4     3    2
    22    66    65    2
    23     6     3   am
    24    65    67   am
    25     3     2    1
    26    39    40    1
    27     1     2    1
    28    67    68    1
    29    42    41    1
    30     2     5    1
    31    41    40    1
    32    40    43    1
    33    45    44    2
    34    68    71    1
    35    68    69    1
    36    24    23    2
    37    71    72    1
    38    44    43    1
    39    44    46   am
    40    61    60    2
    41    23    22    1
    42    69    70    2
    43    72    73    1
    44    74    73    2
    45    60    62   am
    46    60    59    1
    47    73    75   am
    48    25    22    1
    49    25    26    1
    50    22    21    1
    51    59    56    1
    52    56    55    1
    53    56    57    1
    54    26    27   ar
    55    26    28   ar
    56    27    29   ar
    57    48    47    1
    58    48    51    1
    59    48    49    1
    60    28    30   ar
    61    53    51    1
    62    57    58    2
    63    51    52    1
    64    49    50    2
    65    76    77    1
    66    29    31   ar
    67    30    31   ar
    68    31    32    1
    69    52    54    1
    70    77    78    1
    71    77    80    1
    72    81    83    1
    73    81    80    1
    74    78    79    2
    75    80    82    1
