@<TRIPOS>MOLECULE
tmp/1blcA00.pdb
 134 126 0 0 0
SMALL
GASTEIGER

@<TRIPOS>ATOM
      1  N          6.2660  -16.2370  -12.3560 N.3    38  ALA38      -0.1231
      2  CA         5.4690  -15.0600  -12.0020 C.3    38  ALA38       0.1694
      3  C          4.6240  -14.6130  -13.2160 C.2    38  ALA38       0.2589
      4  O          4.0740  -15.4930  -13.9300 O.2    38  ALA38      -0.2718
      5  CB         6.3700  -13.9390  -11.4960 C.3    38  ALA38       0.0304
      6  N          4.5860  -13.2950  -13.4480 N.am   39  SER39      -0.2006
      7  CA         3.8130  -12.7800  -14.5420 C.3    39  SER39       0.1610
      8  C          4.1410  -13.2420  -15.9090 C.3    39  SER39       0.2063
      9  O          3.2970  -12.8660  -16.7900 O.3    39  SER39      -0.2184
     10  CB         3.7470  -11.2670  -14.5980 C.3    39  SER39       0.2063
     11  OG         3.7060  -10.7840  -13.2300 O.3    39  SER39      -0.2184
     12  N          1.4720  -14.9760  -17.7710 N.3    42  LYS42      -0.1245
     13  CA         0.2350  -14.3130  -18.3210 C.3    42  LYS42       0.1561
     14  C          0.1290  -14.5360  -19.8030 C.2    42  LYS42       0.2260
     15  O         -0.9590  -14.5880  -20.4100 O.2    42  LYS42      -0.2867
     16  CB         0.2330  -12.7910  -18.0090 C.3    42  LYS42       0.0271
     17  CG        -0.0180  -12.6500  -16.4600 C.3    42  LYS42       0.0035
     18  CD        -0.0080  -11.1340  -16.0850 C.3    42  LYS42       0.0206
     19  CE        -0.6730  -10.9920  -14.6810 C.3    42  LYS42       0.1093
     20  NZ         0.3030  -10.8600  -13.5850 N.3    42  LYS42      -0.1314
     21  N         -3.1400   -5.4480   -7.3510 N.3    72  TYR72      -0.1241
     22  CA        -2.4090   -5.0430   -8.5440 C.3    72  TYR72       0.1605
     23  C         -3.1980   -5.4970   -9.7970 C.2    72  TYR72       0.2264
     24  O         -2.8530   -6.4410  -10.5030 O.2    72  TYR72      -0.2867
     25  CB        -0.9680   -5.5970   -8.5760 C.3    72  TYR72       0.0534
     26  CG        -0.2560   -5.7250   -7.2410 C.ar   72  TYR72      -0.0201
     27  CD1        0.2910   -4.6290   -6.5910 C.ar   72  TYR72      -0.0009
     28  CD2       -0.2380   -6.9560   -6.5720 C.ar   72  TYR72      -0.0009
     29  CE1        0.9700   -4.7450   -5.3640 C.ar   72  TYR72       0.0417
     30  CE2        0.4120   -7.1110   -5.3620 C.ar   72  TYR72       0.0417
     31  CZ         1.0270   -5.9880   -4.7680 C.ar   72  TYR72       0.1957
     32  OH         1.7220   -6.2330   -3.5840 O.3    72  TYR72      -0.2866
     33  N         -1.8230   -8.6360  -20.4590 N.3    94  MET94      -0.1230
     34  CA        -0.5890   -8.4530  -21.2380 C.3    94  MET94       0.1702
     35  C          0.1030   -7.1140  -21.0140 C.2    94  MET94       0.2593
     36  O          1.3340   -7.2180  -20.6950 O.2    94  MET94      -0.2718
     37  CB        -0.6770   -8.8820  -22.6860 C.3    94  MET94       0.0401
     38  CG        -1.1270  -10.3060  -22.8460 C.3    94  MET94       0.0596
     39  SD        -0.0880  -11.5380  -22.0140 S.3    94  MET94      -0.1393
     40  CE         1.4620  -11.3610  -23.0180 C.3    94  MET94       0.0692
     41  N         -0.4600   -5.9700  -21.2430 N.am   95  THR95      -0.1939
     42  CA         0.1690   -4.6680  -21.1340 C.3    95  THR95       0.2028
     43  C          0.4340   -4.1580  -19.7470 C.2    95  THR95       0.2642
     44  O          1.2700   -3.2590  -19.5200 O.2    95  THR95      -0.2714
     45  CB        -0.8390   -3.6530  -21.8760 C.3    95  THR95       0.1808
     46  OG1       -1.0620   -4.2970  -23.1850 O.3    95  THR95      -0.2208
     47  CG2       -0.5000   -2.1720  -21.9500 C.3    95  THR95       0.0379
     48  N         -0.5010   -4.5430  -18.8050 N.am   96  TYR96      -0.1959
     49  CA        -0.4720   -3.9620  -17.4500 C.3    96  TYR96       0.1771
     50  C         -0.1680   -5.0320  -16.4280 C.2    96  TYR96       0.2620
     51  O         -0.1110   -4.7670  -15.2090 O.2    96  TYR96      -0.2715
     52  CB        -1.8110   -3.2210  -17.1630 C.3    96  TYR96       0.0574
     53  CG        -2.1090   -1.9920  -17.9740 C.ar   96  TYR96      -0.0198
     54  CD1       -1.5850   -0.7460  -17.6790 C.ar   96  TYR96      -0.0009
     55  CD2       -2.8760   -2.0760  -19.1460 C.ar   96  TYR96      -0.0009
     56  CE1       -1.8000    0.3730  -18.4670 C.ar   96  TYR96       0.0417
     57  CE2       -3.1700   -0.9780  -19.9620 C.ar   96  TYR96       0.0417
     58  CZ        -2.5450    0.2420  -19.6510 C.ar   96  TYR96       0.1957
     59  OH        -2.8540    1.3330  -20.4150 O.3    96  TYR96      -0.2866
     60  N          0.0280   -6.2380  -16.9260 N.am   97  SER97      -0.1950
     61  CA         0.1990   -7.3810  -16.0360 C.3    97  SER97       0.1924
     62  C         -0.9440   -7.3240  -14.9810 C.2    97  SER97       0.2314
     63  O         -0.7040   -7.6130  -13.7600 O.2    97  SER97      -0.2863
     64  CB         1.5720   -7.2900  -15.2260 C.3    97  SER97       0.2116
     65  OG         1.9250   -8.6800  -14.9330 O.3    97  SER97      -0.2180
     66  N         -3.6250   -8.5170  -12.5660 N.3    99  ASN99      -0.1296
     67  CA        -3.8150   -9.7660  -11.8220 C.3    99  ASN99       0.1339
     68  C         -5.2790  -10.2810  -11.8950 C.3    99  ASN99       0.2014
     69  O         -5.3950  -11.5350  -12.0280 O.3    99  ASN99      -0.2188
     70  CB        -3.2530   -9.6540  -10.4000 C.3    99  ASN99       0.1102
     71  CG        -1.6830   -9.7530  -10.4080 C.2    99  ASN99       0.2623
     72  OD1       -1.0670  -10.1800  -11.3610 O.2    99  ASN99      -0.2716
     73  ND2       -1.0770   -9.2620   -9.3280 N.am   99  ASN99      -0.0877
     74  N          2.9220  -16.0520   -7.4930 N.3   137  ASN137     -0.1240
     75  CA         4.1480  -15.2590   -7.5640 C.3   137  ASN137      0.1653
     76  C          4.9270  -15.2210   -6.2400 C.2   137  ASN137      0.2266
     77  O          5.7060  -14.2740   -5.9820 O.2   137  ASN137     -0.2867
     78  CB         3.7680  -13.7810   -7.9290 C.3   137  ASN137      0.1155
     79  CG         2.8950  -13.5550   -9.1060 C.2   137  ASN137      0.2627
     80  OD1        3.3040  -13.6280  -10.2890 O.2   137  ASN137     -0.2716
     81  ND2        1.5960  -13.1730   -8.9170 N.am  137  ASN137     -0.0877
     82  N          4.2700   -3.2730  -25.4380 N.3   181  ASN181     -0.1240
     83  CA         4.4440   -3.2630  -23.9680 C.3   181  ASN181      0.1653
     84  C          5.8290   -2.6200  -23.6920 C.2   181  ASN181      0.2266
     85  O          6.8330   -3.1220  -24.2230 O.2   181  ASN181     -0.2867
     86  CB         4.4610   -4.7680  -23.6310 C.3   181  ASN181      0.1155
     87  CG         4.9040   -5.0270  -22.2070 C.2   181  ASN181      0.2627
     88  OD1        5.4720   -6.1280  -21.9780 O.2   181  ASN181     -0.2716
     89  ND2        4.6060   -4.0450  -21.3280 N.am  181  ASN181     -0.0877
     90  N          6.6030   -1.9580  -20.5970 N.3   183  SER183     -0.1217
     91  CA         6.8770   -2.4920  -19.2780 C.3   183  SER183      0.1889
     92  C          8.2220   -3.1520  -19.1160 C.2   183  SER183      0.2288
     93  O          8.8270   -2.9620  -18.0100 O.2   183  SER183     -0.2866
     94  CB         5.6870   -3.3260  -18.7930 C.3   183  SER183      0.2089
     95  OG         4.6590   -2.3230  -18.4310 O.3   183  SER183     -0.2183
     96  N          7.1090  -10.4300  -22.2890 N.3   201  LYS201     -0.1231
     97  CA         6.2260  -10.3820  -21.1050 C.3   201  LYS201      0.1693
     98  C          7.2430  -10.5940  -19.9440 C.2   201  LYS201      0.2593
     99  O          7.8540  -11.6700  -19.9320 O.2   201  LYS201     -0.2718
    100  CB         5.2770  -11.5980  -21.0770 C.3   201  LYS201      0.0285
    101  CG         4.4250  -11.5520  -19.7520 C.3   201  LYS201      0.0035
    102  CD         3.5540  -10.3000  -19.7760 C.3   201  LYS201      0.0206
    103  CE         2.8500  -10.0520  -18.4470 C.3   201  LYS201      0.1093
    104  NZ         3.9630   -9.4220  -17.5490 N.3   201  LYS201     -0.1314
    105  N          7.3200   -9.6280  -19.1250 N.am  202  SER202     -0.1938
    106  CA         8.2720   -9.7000  -17.9570 C.3   202  SER202      0.2055
    107  C          7.5020  -10.1980  -16.7240 C.2   202  SER202      0.2644
    108  O          6.2630  -10.4460  -16.7590 O.2   202  SER202     -0.2714
    109  CB         8.8630   -8.3200  -17.8160 C.3   202  SER202      0.2130
    110  OG         8.0260   -7.3690  -17.1750 O.3   202  SER202     -0.2179
    111  N          8.2420  -10.4220  -15.6140 N.am  203  GLY203     -0.1939
    112  CA         7.5960  -10.8870  -14.3820 C.3   203  GLY203      0.2014
    113  C          8.6430  -10.6640  -13.2660 C.2   203  GLY203      0.2638
    114  O          9.8420  -10.4790  -13.5720 O.2   203  GLY203     -0.2714
    115  N          8.1170  -10.7390  -12.0590 N.am  204  GLN204     -0.1977
    116  CA         8.8820  -10.6440  -10.8190 C.3   204  GLN204      0.1601
    117  C          8.1040  -11.2000   -9.6260 C.2   204  GLN204      0.2287
    118  O          6.9850  -10.6870   -9.3010 O.2   204  GLN204     -0.2864
    119  CB         9.2620   -9.2000  -10.4830 C.3   204  GLN204      0.0394
    120  CG        10.5000   -9.2040   -9.6000 C.3   204  GLN204      0.0908
    121  CD        10.7880   -7.8770   -8.9520 C.2   204  GLN204      0.2608
    122  OE1       10.8010   -6.8010   -9.5270 O.2   204  GLN204     -0.2717
    123  NE2       11.0930   -7.9820   -7.6430 N.am  204  GLN204     -0.0878
    124  N         13.5170  -12.2450  -10.9340 N.3   211  ARG211     -0.1301
    125  CA        13.2850  -11.3740  -12.0760 C.3   211  ARG211      0.1248
    126  C         13.4300  -12.1450  -13.3630 C.3   211  ARG211      0.2009
    127  O         14.4160  -12.9320  -13.6480 O.3   211  ARG211     -0.2188
    128  CB        14.1480  -10.1570  -11.8670 C.3   211  ARG211      0.0254
    129  CG        13.9790   -9.0000  -12.7930 C.3   211  ARG211      0.0485
    130  CD        12.6380   -8.3800  -12.6840 C.3   211  ARG211      0.2205
    131  NE        12.4940   -7.1370  -13.4270 N.pl3 211  ARG211     -0.0865
    132  CZ        11.3920   -6.7210  -14.0290 C.cat 211  ARG211      0.5346
    133  NH1       10.3230   -7.4930  -14.2170 N.pl3 211  ARG211      0.1354
    134  NH2       11.3450   -5.4210  -14.2720 N.pl3 211  ARG211      0.1354
@<TRIPOS>BOND
     1    82    83    1
     2    85    84    2
     3    83    84    1
     4    83    86    1
     5    86    87    1
     6    46    45    1
     7    40    39    1
     8    38    37    1
     9    38    39    1
    10    37    34    1
    11    96    97    1
    12    87    88    2
    13    87    89   am
    14    47    45    1
    15    45    42    1
    16    41    42    1
    17    41    35   am
    18    34    35    1
    19    34    33    1
    20    42    43    1
    21    97   100    1
    22    97    98    1
    23   100   101    1
    24    35    36    2
    25    90    91    1
    26    59    58    1
    27    15    14    2
    28    57    58   ar
    29    57    55   ar
    30    98    99    2
    31    98   105   am
    32    14    13    1
    33   102   101    1
    34   102   103    1
    35    43    44    2
    36    43    48   am
    37    58    56   ar
    38    91    92    1
    39    91    94    1
    40    55    53   ar
    41   105   106    1
    42    92    93    2
    43    48    49    1
    44    94    95    1
    45    56    54   ar
    46   103   104    1
    47    13    16    1
    48    13    12    1
    49    16    17    1
    50    53    54   ar
    51    53    52    1
    52   106   109    1
    53   106   107    1
    54   109   110    1
    55    49    52    1
    56    49    50    1
    57    60    50   am
    58    60    61    1
    59     9     8    1
    60   108   107    2
    61   107   111   am
    62    17    18    1
    63    50    51    2
    64    18    19    1
    65    61    64    1
    66    61    62    1
    67     8     7    1
    68   111   112    1
    69    64    65    1
    70    62    63    2
    71    19    20    1
    72    10     7    1
    73    10    11    1
    74     7     6    1
    75   112   113    1
    76   134   132    1
    77   133   132    1
    78   132   131    2
    79     4     3    2
    80   127   126    1
    81   114   113    2
    82     6     3   am
    83   131   130    1
    84   126   125    1
    85   113   115   am
    86     3     2    1
    87   129   130    1
    88   129   128    1
    89    66    67    1
    90     1     2    1
    91   125   128    1
    92   125   124    1
    93   115   116    1
    94    69    68    1
    95     2     5    1
    96    68    67    1
    97    67    70    1
    98    72    71    2
    99   116   119    1
   100   116   117    1
   101    24    23    2
   102   119   120    1
   103    71    70    1
   104    71    73   am
   105    80    79    2
   106    23    22    1
   107   117   118    2
   108   120   121    1
   109   122   121    2
   110    79    81   am
   111    79    78    1
   112   121   123   am
   113    25    22    1
   114    25    26    1
   115    22    21    1
   116    78    75    1
   117    75    74    1
   118    75    76    1
   119    26    27   ar
   120    26    28   ar
   121    27    29   ar
   122    28    30   ar
   123    76    77    2
   124    29    31   ar
   125    30    31   ar
   126    31    32    1
