@<TRIPOS>MOLECULE
tmp/1blfA01.pdb
 74 67 0 0 0
SMALL
GASTEIGER

@<TRIPOS>ATOM
      1  N         67.7160   44.5230   28.3140 N.3   464  ASN464     -0.1225
      2  CA        66.7590   43.4180   28.5210 C.3   464  ASN464      0.1785
      3  C         67.3200   42.0180   28.7080 C.2   464  ASN464      0.2597
      4  O         66.8760   41.2960   29.6200 O.2   464  ASN464     -0.2718
      5  CB        65.5840   43.4830   27.5460 C.3   464  ASN464      0.1169
      6  CG        64.8260   44.8120   27.6450 C.2   464  ASN464      0.2627
      7  OD1       64.3830   45.3710   26.6330 O.2   464  ASN464     -0.2716
      8  ND2       64.6900   45.3570   28.8500 N.am  464  ASN464     -0.0877
      9  N         68.3070   41.6520   27.8890 N.am  465  ILE465     -0.1980
     10  CA        68.9520   40.3340   27.9980 C.3   465  ILE465      0.1595
     11  C         69.8280   40.1140   29.2410 C.2   465  ILE465      0.2287
     12  O         69.5430   39.2120   30.0050 O.2   465  ILE465     -0.2864
     13  CB        69.6310   39.8380   26.7030 C.3   465  ILE465      0.0276
     14  CG1       68.6620   39.8690   25.5120 C.3   465  ILE465      0.0022
     15  CG2       70.2880   38.4650   26.9300 C.3   465  ILE465      0.0022
     16  CD1       67.3420   39.2290   25.7840 C.3   465  ILE465      0.0001
     17  N         67.7790   41.0400   32.6040 N.3   468  GLY468     -0.1210
     18  CA        66.7070   40.0630   32.7540 C.3   468  GLY468      0.1956
     19  C         67.2640   38.7540   33.2960 C.2   468  GLY468      0.2611
     20  O         66.6740   38.1430   34.2140 O.2   468  GLY468     -0.2717
     21  N         68.4370   38.3830   32.7680 N.am  469  LEU469     -0.1979
     22  CA        69.1870   37.2030   33.1970 C.3   469  LEU469      0.1596
     23  C         69.7610   37.3400   34.6340 C.2   469  LEU469      0.2287
     24  O         69.7250   36.3720   35.4290 O.2   469  LEU469     -0.2864
     25  CB        70.3380   36.9170   32.2070 C.3   469  LEU469      0.0297
     26  CG        70.0460   36.2110   30.8770 C.3   469  LEU469      0.0022
     27  CD1       71.1780   36.3630   29.8720 C.3   469  LEU469      0.0001
     28  CD2       69.7170   34.7770   31.0810 C.3   469  LEU469      0.0001
     29  N         66.9780   37.2740   37.3510 N.3   472  ASN472     -0.1240
     30  CA        66.5660   35.9070   37.4480 C.3   472  ASN472      0.1653
     31  C         67.5100   35.0600   38.2150 C.2   472  ASN472      0.2266
     32  O         67.0970   34.1610   38.9350 O.2   472  ASN472     -0.2867
     33  CB        66.4810   35.3440   36.0610 C.3   472  ASN472      0.1155
     34  CG        65.1430   35.5360   35.4790 C.2   472  ASN472      0.2627
     35  OD1       64.4310   36.4910   35.8340 O.2   472  ASN472     -0.2716
     36  ND2       64.7570   34.6620   34.5780 N.am  472  ASN472     -0.0877
     37  N         58.6600   34.3240   23.7650 N.3   660  GLU660     -0.1245
     38  CA        59.7360   34.0930   24.7120 C.3   660  GLU660      0.1567
     39  C         60.4270   35.3650   25.1580 C.2   660  GLU660      0.2260
     40  O         60.6210   35.5590   26.3610 O.2   660  GLU660     -0.2867
     41  CB        60.7700   33.1880   24.0730 C.3   660  GLU660      0.0388
     42  CG        60.3300   32.5750   22.7240 C.3   660  GLU660      0.1160
     43  CD        60.6130   33.4870   21.4800 C.2   660  GLU660      0.3649
     44  OE1       61.2050   34.5910   21.6590 O.co2 660  GLU660     -0.2457
     45  OE2       60.1440   33.1290   20.3660 O.co2 660  GLU660     -0.2457
     46  N         57.7900   37.6450   26.9570 N.3   663  THR663     -0.1203
     47  CA        57.6080   37.1660   28.3180 C.3   663  THR663      0.1994
     48  C         58.8060   37.4570   29.1810 C.2   663  THR663      0.2617
     49  O         58.6740   37.7020   30.3790 O.2   663  THR663     -0.2717
     50  CB        57.2390   35.6410   28.3920 C.3   663  THR663      0.1784
     51  OG1       58.1160   34.8700   27.5580 O.3   663  THR663     -0.2211
     52  CG2       55.7810   35.4130   27.9610 C.3   663  THR663      0.0376
     53  N         59.9660   37.4880   28.5310 N.am  664  ALA664     -0.1979
     54  CA        61.2200   37.8210   29.1800 C.3   664  ALA664      0.1597
     55  C         61.2800   39.2770   29.5670 C.2   664  ALA664      0.2287
     56  O         61.7560   39.6290   30.6790 O.2   664  ALA664     -0.2864
     57  CB        62.3880   37.4810   28.2780 C.3   664  ALA664      0.0319
     58  N         58.5260   39.8720   32.5720 N.3   667  ASN667     -0.1240
     59  CA        58.9760   39.5390   33.9160 C.3   667  ASN667      0.1653
     60  C         59.9810   40.5390   34.4800 C.2   667  ASN667      0.2266
     61  O         59.9640   40.8210   35.6860 O.2   667  ASN667     -0.2867
     62  CB        59.5810   38.1270   33.9640 C.3   667  ASN667      0.1155
     63  CG        58.5350   37.0180   33.8460 C.2   667  ASN667      0.2627
     64  OD1       58.0310   36.5100   34.8630 O.2   667  ASN667     -0.2716
     65  ND2       58.2820   36.5940   32.6150 N.am  667  ASN667     -0.0877
     66  N         58.3790   43.8480   35.7610 N.3   670  LYS670     -0.1245
     67  CA        57.6910   43.8190   37.0350 C.3   670  LYS670      0.1561
     68  C         58.5140   44.3940   38.1740 C.2   670  LYS670      0.2260
     69  O         57.9870   44.6960   39.2600 O.2   670  LYS670     -0.2867
     70  CB        57.2640   42.4100   37.3610 C.3   670  LYS670      0.0271
     71  CG        56.3570   41.8440   36.3170 C.3   670  LYS670      0.0035
     72  CD        56.2090   40.3410   36.4830 C.3   670  LYS670      0.0206
     73  CE        55.7850   39.9660   37.9050 C.3   670  LYS670      0.1093
     74  NZ        55.4470   38.5040   38.0370 N.3   670  LYS670     -0.1314
@<TRIPOS>BOND
     1    45    43   ar
     2    43    44   ar
     3    43    42    1
     4    42    41    1
     5    37    38    1
     6    41    38    1
     7    38    39    1
     8    39    40    2
     9    14    16    1
    10    14    13    1
    11     7     6    2
    12    13    15    1
    13    13    10    1
    14    46    47    1
    15     5     6    1
    16     5     2    1
    17    51    50    1
    18     6     8   am
    19     9    10    1
    20     9     3   am
    21    52    50    1
    22    10    11    1
    23    57    54    1
    24     1     2    1
    25    47    50    1
    26    47    48    1
    27     2     3    1
    28    53    54    1
    29    53    48   am
    30     3     4    2
    31    54    55    1
    32    48    49    2
    33    11    12    2
    34    55    56    2
    35    27    26    1
    36    26    28    1
    37    26    25    1
    38    25    22    1
    39    58    59    1
    40    17    18    1
    41    65    63   am
    42    18    19    1
    43    21    22    1
    44    21    19   am
    45    22    23    1
    46    19    20    2
    47    63    62    1
    48    63    64    2
    49    59    62    1
    50    59    60    1
    51    60    61    2
    52    36    34   am
    53    23    24    2
    54    34    35    2
    55    34    33    1
    56    66    67    1
    57    33    30    1
    58    71    72    1
    59    71    70    1
    60    72    73    1
    61    67    70    1
    62    67    68    1
    63    29    30    1
    64    30    31    1
    65    73    74    1
    66    68    69    2
    67    31    32    2
