@<TRIPOS>MOLECULE
tmp/1blfA02.pdb
 149 141 0 0 0
SMALL
GASTEIGER

@<TRIPOS>ATOM
      1  N         70.5770   42.9990    7.0990 N.3   411  ARG411     -0.1231
      2  CA        71.9740   43.1500    6.6920 C.3   411  ARG411      0.1694
      3  C         72.3560   41.9750    5.7770 C.2   411  ARG411      0.2592
      4  O         71.4780   41.1900    5.3580 O.2   411  ARG411     -0.2718
      5  CB        72.8930   43.1840    7.9160 C.3   411  ARG411      0.0321
      6  CG        72.3570   42.4250    9.1060 C.3   411  ARG411      0.0489
      7  CD        73.4460   41.6970    9.8960 C.3   411  ARG411      0.2205
      8  NE        72.8490   40.8760   10.9560 N.pl3 411  ARG411     -0.0865
      9  CZ        73.2750   39.6640   11.3240 C.cat 411  ARG411      0.5346
     10  NH1       74.3230   39.1020   10.7260 N.pl3 411  ARG411      0.1354
     11  NH2       72.6450   39.0100   12.2960 N.pl3 411  ARG411      0.1354
     12  N         73.6580   41.8700    5.4850 N.am  412  LYS412     -0.1966
     13  CA        74.2250   40.8340    4.6150 C.3   412  LYS412      0.1728
     14  C         74.2460   39.4790    5.3660 C.2   412  LYS412      0.2617
     15  O         74.7070   39.4000    6.5290 O.2   412  LYS412     -0.2715
     16  CB        75.6440   41.2410    4.1780 C.3   412  LYS412      0.0311
     17  CG        75.7720   42.6920    3.7190 C.3   412  LYS412      0.0038
     18  CD        77.1870   43.2400    4.0920 C.3   412  LYS412      0.0206
     19  CE        78.2670   42.8170    3.1090 C.3   412  LYS412      0.1093
     20  NZ        79.6760   43.0890    3.7030 N.3   412  LYS412     -0.1314
     21  N         73.7130   38.4420    4.7210 N.am  413  SER413     -0.1936
     22  CA        73.6450   37.1120    5.3070 C.3   413  SER413      0.2055
     23  C         74.8600   36.3000    4.8470 C.2   413  SER413      0.2643
     24  O         75.7510   36.8070    4.1260 O.2   413  SER413     -0.2714
     25  CB        72.3300   36.4150    4.8990 C.3   413  SER413      0.2130
     26  OG        72.4980   35.5100    3.8090 O.3   413  SER413     -0.2179
     27  N         74.8990   35.0420    5.2700 N.am  414  SER414     -0.1949
     28  CA        75.9690   34.1440    4.8890 C.3   414  SER414      0.1924
     29  C         75.5880   33.2670    3.6950 C.2   414  SER414      0.2314
     30  O         76.4480   32.8000    2.9390 O.2   414  SER414     -0.2863
     31  CB        76.3360   33.2590    6.0810 C.3   414  SER414      0.2116
     32  OG        75.2260   32.4630    6.4670 O.3   414  SER414     -0.2180
     33  N         73.3250   38.7460   17.5140 N.3   430  LEU430     -0.1245
     34  CA        73.7840   38.0180   18.6770 C.3   430  LEU430      0.1561
     35  C         74.1170   38.9730   19.7920 C.2   430  LEU430      0.2260
     36  O         74.9420   39.8730   19.6170 O.2   430  LEU430     -0.2867
     37  CB        75.0250   37.2000   18.3400 C.3   430  LEU430      0.0270
     38  CG        74.7670   36.0220   17.4030 C.3   430  LEU430      0.0019
     39  CD1       75.9220   35.0330   17.4640 C.3   430  LEU430      0.0001
     40  CD2       73.4570   35.3530   17.7610 C.3   430  LEU430      0.0001
     41  N         77.4730   41.3200   18.6740 N.3   541  ASN541     -0.1225
     42  CA        78.6870   40.7780   18.0850 C.3   541  ASN541      0.1785
     43  C         79.4000   41.7150   17.0910 C.2   541  ASN541      0.2597
     44  O         80.6120   41.9810   17.2230 O.2   541  ASN541     -0.2718
     45  CB        78.4190   39.3800   17.4460 C.3   541  ASN541      0.1169
     46  CG        79.4340   39.0480   16.3710 C.2   541  ASN541      0.2627
     47  OD1       80.5730   38.6990   16.6730 O.2   541  ASN541     -0.2716
     48  ND2       79.0190   39.1460   15.1160 N.am  541  ASN541     -0.0877
     49  N         78.6040   42.2870   16.1950 N.am  542  ASP542     -0.1974
     50  CA        79.0500   43.1690   15.1110 C.3   542  ASP542      0.1709
     51  C         79.8120   44.3930   15.5320 C.2   542  ASP542      0.2293
     52  O         80.6700   44.8540   14.8030 O.2   542  ASP542     -0.2864
     53  CB        77.8540   43.6270   14.2730 C.3   542  ASP542      0.1436
     54  CG        76.8890   42.5310   14.0270 C.2   542  ASP542      0.3671
     55  OD1       76.2970   42.0750   15.0170 O.co2 542  ASP542     -0.2456
     56  OD2       76.7640   42.0950   12.8670 O.co2 542  ASP542     -0.2456
     57  N         83.4960   43.6750   16.0770 N.3   545  TRP545     -0.1227
     58  CA        84.1410   43.4970   14.8060 C.3   545  TRP545      0.1737
     59  C         84.3170   44.7700   14.0500 C.2   545  TRP545      0.2595
     60  O         85.3550   44.9950   13.4190 O.2   545  TRP545     -0.2718
     61  CB        83.3020   42.5910   13.9280 C.3   545  TRP545      0.0564
     62  CG        83.4250   41.2360   14.3230 C.ar  545  TRP545      0.0003
     63  CD1       82.6840   40.6070   15.2350 C.ar  545  TRP545      0.0946
     64  CD2       84.4200   40.3110   13.8940 C.ar  545  TRP545      0.0152
     65  NE1       83.1070   39.3200   15.4010 N.ar  545  TRP545     -0.2442
     66  CE2       84.1790   39.1030   14.5790 C.ar  545  TRP545      0.0810
     67  CE3       85.4680   40.3660   12.9640 C.ar  545  TRP545      0.0012
     68  CZ2       84.9600   37.9520   14.3790 C.ar  545  TRP545      0.0191
     69  CZ3       86.2410   39.2150   12.7570 C.ar  545  TRP545      0.0001
     70  CH2       85.9810   38.0310   13.4640 C.ar  545  TRP545      0.0015
     71  N         83.3100   45.6260   14.1470 N.am  546  GLU546     -0.1979
     72  CA        83.3120   46.8780   13.4220 C.3   546  GLU546      0.1602
     73  C         84.1310   47.9530   14.0390 C.2   546  GLU546      0.2287
     74  O         84.3590   48.9880   13.4150 O.2   546  GLU546     -0.2864
     75  CB        81.8920   47.3790   13.2330 C.3   546  GLU546      0.0415
     76  CG        81.1470   46.6550   12.1330 C.3   546  GLU546      0.1163
     77  CD        79.6410   46.7210   12.2920 C.2   546  GLU546      0.3649
     78  OE1       79.1560   47.5590   13.0900 O.co2 546  GLU546     -0.2457
     79  OE2       78.9480   45.9410   11.5990 O.co2 546  GLU546     -0.2457
     80  N         90.3760   46.2610   14.6310 N.3   549  ASN549     -0.1225
     81  CA        91.2210   45.9170   13.4990 C.3   549  ASN549      0.1785
     82  C         91.1830   46.7210   12.1980 C.2   549  ASN549      0.2598
     83  O         91.0890   46.1650   11.0840 O.2   549  ASN549     -0.2718
     84  CB        91.3480   44.3990   13.3350 C.3   549  ASN549      0.1169
     85  CG        91.8350   43.7340   14.6140 C.2   549  ASN549      0.2627
     86  OD1       91.6010   44.2440   15.7110 O.2   549  ASN549     -0.2716
     87  ND2       92.5330   42.6200   14.4820 N.am  549  ASN549     -0.0877
     88  N         91.1750   48.0400   12.3630 N.am  550  GLY550     -0.1942
     89  CA        91.1460   48.9450   11.2270 C.3   550  GLY550      0.2014
     90  C         89.7910   49.1570   10.5590 C.2   550  GLY550      0.2638
     91  O         89.7160   49.8160    9.4950 O.2   550  GLY550     -0.2714
     92  N         88.7280   48.5980   11.1480 N.am  551  GLU551     -0.1977
     93  CA        87.3990   48.7420   10.6070 C.3   551  GLU551      0.1602
     94  C         86.8380   50.1140   10.8930 C.2   551  GLU551      0.2287
     95  O         86.3180   50.7980   10.0080 O.2   551  GLU551     -0.2864
     96  CB        86.5080   47.6350   11.1520 C.3   551  GLU551      0.0415
     97  CG        85.8040   46.8570   10.0720 C.3   551  GLU551      0.1163
     98  CD        86.7820   46.2460    9.0970 C.2   551  GLU551      0.3649
     99  OE1       87.7930   45.6880    9.5650 O.co2 551  GLU551     -0.2457
    100  OE2       86.5490   46.3190    7.8730 O.co2 551  GLU551     -0.2457
    101  N         91.6010   43.2300   18.0930 N.3   562  ARG562     -0.1245
    102  CA        90.4800   42.3960   18.4700 C.3   562  ARG562      0.1563
    103  C         90.8190   41.1910   19.3750 C.2   562  ARG562      0.2260
    104  O         89.9340   40.5990   20.0190 O.2   562  ARG562     -0.2867
    105  CB        89.6510   42.1090   17.2190 C.3   562  ARG562      0.0307
    106  CG        89.2830   40.7150   16.8690 C.3   562  ARG562      0.0489
    107  CD        88.8880   40.7230   15.4080 C.3   562  ARG562      0.2205
    108  NE        88.3080   42.0060   15.0080 N.pl3 562  ARG562     -0.0865
    109  CZ        88.2230   42.4210   13.7450 C.cat 562  ARG562      0.5346
    110  NH1       88.6890   41.6720   12.7520 N.pl3 562  ARG562      0.1354
    111  NH2       87.6870   43.6020   13.4840 N.pl3 562  ARG562      0.1354
    112  N         85.7710   35.3940   17.9410 N.3   578  THR578     -0.1218
    113  CA        85.5090   34.5850   16.7760 C.3   578  THR578      0.1862
    114  C         84.4590   33.4880   17.0320 C.2   578  THR578      0.2287
    115  O         83.9170   32.8880   16.0950 O.2   578  THR578     -0.2866
    116  CB        86.8130   33.9230   16.3380 C.3   578  THR578      0.1770
    117  OG1       87.4600   33.3430   17.4850 O.3   578  THR578     -0.2211
    118  CG2       87.7250   34.9580   15.7220 C.3   578  THR578      0.0375
    119  N         81.3400   33.6630   18.7170 N.3   580  ALA580     -0.1231
    120  CA        80.1650   34.3000   19.2710 C.3   580  ALA580      0.1694
    121  C         78.9560   33.4220   19.1700 C.2   580  ALA580      0.2591
    122  O         78.0370   33.4950   19.9950 O.2   580  ALA580     -0.2718
    123  CB        79.9130   35.6180   18.5730 C.3   580  ALA580      0.0304
    124  N         79.0170   32.5370   18.1770 N.am  581  GLN581     -0.1979
    125  CA        77.9980   31.5570   17.8930 C.3   581  GLN581      0.1601
    126  C         77.8580   30.5020   18.9960 C.2   581  GLN581      0.2287
    127  O         76.7750   29.9610   19.2270 O.2   581  GLN581     -0.2864
    128  CB        78.3030   30.9070   16.5480 C.3   581  GLN581      0.0394
    129  CG        77.1620   30.0630   15.9640 C.3   581  GLN581      0.0908
    130  CD        75.8630   30.8530   15.7100 C.2   581  GLN581      0.2608
    131  OE1       75.7010   31.4930   14.6490 O.2   581  GLN581     -0.2717
    132  NE2       74.9030   30.7510   16.6450 N.am  581  GLN581     -0.0878
    133  N         74.4230   55.2100    5.8770 N.3   629  LYS629     -0.1245
    134  CA        75.7800   55.5550    6.3000 C.3   629  LYS629      0.1561
    135  C         75.7390   56.7350    7.2530 C.2   629  LYS629      0.2260
    136  O         75.0800   57.7500    6.9630 O.2   629  LYS629     -0.2867
    137  CB        76.6740   55.8380    5.0930 C.3   629  LYS629      0.0271
    138  CG        77.1520   54.5700    4.4410 C.3   629  LYS629      0.0035
    139  CD        77.4480   53.5060    5.5150 C.3   629  LYS629      0.0206
    140  CE        78.1370   52.2750    4.9350 C.3   629  LYS629      0.1093
    141  NZ        77.3250   51.5440    3.9080 N.3   629  LYS629     -0.1314
    142  N         75.3640   48.9700    9.3290 N.3   640  ASN640     -0.1240
    143  CA        75.5090   47.6730    8.6870 C.3   640  ASN640      0.1653
    144  C         74.3050   47.1930    7.8620 C.2   640  ASN640      0.2266
    145  O         74.3810   46.1200    7.2410 O.2   640  ASN640     -0.2867
    146  CB        76.0280   46.5830    9.6410 C.3   640  ASN640      0.1155
    147  CG        75.0890   46.2530   10.8340 C.2   640  ASN640      0.2627
    148  OD1       75.5020   45.4860   11.7100 O.2   640  ASN640     -0.2716
    149  ND2       73.8690   46.7810   10.8790 N.am  640  ASN640     -0.0877
@<TRIPOS>BOND
     1    30    29    2
     2    19    20    1
     3    19    18    1
     4    29    28    1
     5    17    18    1
     6    17    16    1
     7    26    25    1
     8   141   140    1
     9    24    23    2
    10    16    13    1
    11   138   137    1
    12   138   139    1
    13    13    14    1
    14    13    12    1
    15    21    22    1
    16    21    14   am
    17    23    27   am
    18    23    22    1
    19    28    27    1
    20    28    31    1
    21    25    22    1
    22   140   139    1
    23   137   134    1
    24     4     3    2
    25    14    15    2
    26    12     3   am
    27     3     2    1
    28   133   134    1
    29    31    32    1
    30   134   135    1
    31     2     1    1
    32     2     5    1
    33   136   135    2
    34   145   144    2
    35   144   143    1
    36   100    98   ar
    37     5     6    1
    38   143   142    1
    39   143   146    1
    40    98    99   ar
    41    98    97    1
    42     6     7    1
    43    91    90    2
    44   146   147    1
    45     7     8    1
    46    95    94    2
    47    97    96    1
    48    90    92   am
    49    90    89    1
    50    93    94    1
    51    93    92    1
    52    93    96    1
    53    10     9    1
    54   147   149   am
    55   147   148    2
    56     8     9    2
    57    83    82    2
    58    89    88    1
    59     9    11    1
    60    79    77   ar
    61    76    77    1
    62    76    75    1
    63    82    88   am
    64    82    81    1
    65    77    78   ar
    66   110   109    1
    67    69    67   ar
    68    69    70   ar
    69    56    54   ar
    70    67    64   ar
    71    75    72    1
    72    84    81    1
    73    84    85    1
    74    74    73    2
    75    60    59    2
    76    72    73    1
    77    72    71    1
    78    70    68   ar
    79   111   109    1
    80    81    80    1
    81   109   108    2
    82    64    62   ar
    83    64    66   ar
    84    61    62    1
    85    61    58    1
    86    54    53    1
    87    54    55   ar
    88    59    71   am
    89    59    58    1
    90    53    50    1
    91    62    63   ar
    92    68    66   ar
    93    87    85   am
    94    66    65   ar
    95    85    86    2
    96   131   130    2
    97    52    51    2
    98    58    57    1
    99   108   107    1
   100    50    51    1
   101    50    49    1
   102    48    46   am
   103    63    65   ar
   104   107   106    1
   105   130   129    1
   106   130   132   am
   107   118   116    1
   108   129   128    1
   109   115   114    2
   110    49    43   am
   111   116   113    1
   112   116   117    1
   113    46    47    2
   114    46    45    1
   115   128   125    1
   116   113   114    1
   117   113   112    1
   118   106   105    1
   119    43    44    2
   120    43    42    1
   121   105   102    1
   122    38    39    1
   123    38    40    1
   124    38    37    1
   125    45    42    1
   126    33    34    1
   127   125   124    1
   128   125   126    1
   129    42    41    1
   130   101   102    1
   131   124   121   am
   132    37    34    1
   133   102   103    1
   134   123   120    1
   135    34    35    1
   136   119   120    1
   137   126   127    2
   138   121   120    1
   139   121   122    2
   140   103   104    2
   141    36    35    2
