@<TRIPOS>MOLECULE
tmp/1blfA00.pdb
 91 86 0 0 0
SMALL
GASTEIGER

@<TRIPOS>ATOM
      1  N         67.2390   66.0220    0.3870 N.3   360  GLN360     -0.1231
      2  CA        67.5620   65.0850   -0.6690 C.3   360  GLN360      0.1698
      3  C         66.3430   64.3440   -1.1660 C.2   360  GLN360      0.2593
      4  O         66.2680   63.9880   -2.3510 O.2   360  GLN360     -0.2718
      5  CB        68.6310   64.0690   -0.2460 C.3   360  GLN360      0.0381
      6  CG        70.0440   64.5050   -0.5230 C.3   360  GLN360      0.0905
      7  CD        70.1440   65.4240   -1.7260 C.2   360  GLN360      0.2608
      8  OE1       69.9350   65.0010   -2.8680 O.2   360  GLN360     -0.2717
      9  NE2       70.4820   66.6870   -1.4810 N.am  360  GLN360     -0.0878
     10  N         65.3440   64.1830   -0.2820 N.am  361  SER361     -0.1938
     11  CA        64.1100   63.5160   -0.6650 C.3   361  SER361      0.2055
     12  C         63.1490   64.4880   -1.2960 C.2   361  SER361      0.2643
     13  O         62.0740   64.0750   -1.7100 O.2   361  SER361     -0.2714
     14  CB        63.3980   62.8780    0.5180 C.3   361  SER361      0.2130
     15  OG        62.9440   63.8760    1.4030 O.3   361  SER361     -0.2179
     16  N         63.5060   65.7760   -1.3120 N.am  362  GLY362     -0.1954
     17  CA        62.6680   66.8090   -1.9060 C.3   362  GLY362      0.1869
     18  C         61.4290   67.0900   -1.0900 C.2   362  GLY362      0.2309
     19  O         60.3420   67.3260   -1.6440 O.2   362  GLY362     -0.2863
     20  N         59.9130   64.8460    0.7600 N.3   364  ASN364     -0.1240
     21  CA        59.0290   63.6930    0.7690 C.3   364  ASN364      0.1653
     22  C         59.0000   63.0900    2.1700 C.2   364  ASN364      0.2266
     23  O         58.0020   62.5150    2.6200 O.2   364  ASN364     -0.2867
     24  CB        59.5110   62.6220   -0.2200 C.3   364  ASN364      0.1155
     25  CG        59.0420   62.8510   -1.6690 C.2   364  ASN364      0.2627
     26  OD1       58.5530   63.9410   -2.0360 O.2   364  ASN364     -0.2716
     27  ND2       59.2060   61.8020   -2.5120 N.am  364  ASN364     -0.0877
     28  N         55.3820   51.9580    1.6980 N.3   605  GLN605     -0.1245
     29  CA        55.4710   52.2870    0.2740 C.3   605  GLN605      0.1566
     30  C         56.5080   53.3360   -0.0370 C.2   605  GLN605      0.2260
     31  O         57.3150   53.2070   -0.9810 O.2   605  GLN605     -0.2867
     32  CB        54.1090   52.8180   -0.1920 C.3   605  GLN605      0.0367
     33  CG        54.0880   53.3490   -1.6450 C.3   605  GLN605      0.0905
     34  CD        53.3530   54.7160   -1.8040 C.2   605  GLN605      0.2608
     35  OE1       52.5970   55.1470   -0.9090 O.2   605  GLN605     -0.2717
     36  NE2       53.5850   55.3720   -2.9540 N.am  605  GLN605     -0.0878
     37  N         60.4540   53.2260   -1.7480 N.3   609  HIS609     -0.1226
     38  CA        60.7940   54.2080   -2.7630 C.3   609  HIS609      0.1752
     39  C         62.0940   54.9630   -2.4110 C.2   609  HIS609      0.2595
     40  O         62.9420   55.2270   -3.2760 O.2   609  HIS609     -0.2718
     41  CB        59.5820   55.2200   -2.8800 C.3   609  HIS609      0.0759
     42  CG        59.6750   56.2020   -4.0190 C.ar  609  HIS609      0.0818
     43  ND1       60.6150   57.2150   -4.0800 N.ar  609  HIS609     -0.2268
     44  CD2       58.8720   56.3850   -5.0960 C.ar  609  HIS609      0.1154
     45  CE1       60.4310   57.9330   -5.1760 C.ar  609  HIS609      0.1986
     46  NE2       59.3720   57.4570   -5.8060 N.ar  609  HIS609     -0.2212
     47  N         62.2230   55.2900   -1.1310 N.am  610  GLN610     -0.1979
     48  CA        63.3680   56.0150   -0.6140 C.3   610  GLN610      0.1601
     49  C         64.6330   55.1970   -0.5810 C.2   610  GLN610      0.2287
     50  O         65.7280   55.7150   -0.8320 O.2   610  GLN610     -0.2864
     51  CB        63.0740   56.5200    0.7960 C.3   610  GLN610      0.0394
     52  CG        62.0630   57.6570    0.8880 C.3   610  GLN610      0.0908
     53  CD        62.3130   58.7790   -0.0930 C.2   610  GLN610      0.2608
     54  OE1       63.1720   59.6450    0.1380 O.2   610  GLN610     -0.2717
     55  NE2       61.5210   58.8140   -1.1680 N.am  610  GLN610     -0.0878
     56  N         66.4720   54.9350   -3.9240 N.3   613  LEU613     -0.1231
     57  CA        67.2230   56.1200   -4.2550 C.3   613  LEU613      0.1693
     58  C         68.4470   56.2960   -3.4130 C.2   613  LEU613      0.2592
     59  O         69.5060   56.6930   -3.8990 O.2   613  LEU613     -0.2718
     60  CB        66.3710   57.3560   -4.0110 C.3   613  LEU613      0.0284
     61  CG        65.0160   57.3120   -4.6830 C.3   613  LEU613      0.0019
     62  CD1       64.2450   58.5710   -4.3760 C.3   613  LEU613      0.0001
     63  CD2       65.2410   57.1460   -6.1550 C.3   613  LEU613      0.0001
     64  N         68.2870   56.0650   -2.1230 N.am  614  PHE614     -0.1976
     65  CA        69.3620   56.3170   -1.2010 C.3   614  PHE614      0.1639
     66  C         69.9410   55.1680   -0.4120 C.2   614  PHE614      0.2290
     67  O         70.7700   55.4030    0.4730 O.2   614  PHE614     -0.2864
     68  CB        68.9280   57.4240   -0.2370 C.3   614  PHE614      0.0560
     69  CG        68.3690   58.6440   -0.9210 C.ar  614  PHE614     -0.0200
     70  CD1       69.2220   59.5530   -1.5370 C.ar  614  PHE614     -0.0042
     71  CD2       67.0010   58.8810   -0.9530 C.ar  614  PHE614     -0.0042
     72  CE1       68.7380   60.6790   -2.1580 C.ar  614  PHE614     -0.0003
     73  CE2       66.5110   59.9930   -1.5880 C.ar  614  PHE614     -0.0003
     74  CZ        67.3830   60.8960   -2.1900 C.ar  614  PHE614     -0.0000
     75  N         71.1330   57.3840   -5.8320 N.3   620  ASN620     -0.1240
     76  CA        71.7800   58.5870   -5.3310 C.3   620  ASN620      0.1653
     77  C         72.8780   58.2970   -4.2800 C.2   620  ASN620      0.2266
     78  O         73.5490   59.1740   -3.7690 O.2   620  ASN620     -0.2867
     79  CB        70.7230   59.6030   -4.8630 C.3   620  ASN620      0.1155
     80  CG        69.7030   59.9720   -5.9840 C.2   620  ASN620      0.2627
     81  OD1       69.6980   59.3710   -7.0650 O.2   620  ASN620     -0.2716
     82  ND2       68.8090   60.9160   -5.6950 N.am  620  ASN620     -0.0877
     83  N         75.0230   61.2700   -4.0310 N.3   624  LYS624     -0.1245
     84  CA        74.1250   62.2640   -3.4510 C.3   624  LYS624      0.1561
     85  C         73.8680   62.0320   -1.9650 C.2   624  LYS624      0.2260
     86  O         74.2650   62.8610   -1.1340 O.2   624  LYS624     -0.2867
     87  CB        72.7920   62.3260   -4.2040 C.3   624  LYS624      0.0271
     88  CG        72.8080   63.2620   -5.4010 C.3   624  LYS624      0.0035
     89  CD        71.5150   63.1510   -6.2470 C.3   624  LYS624      0.0206
     90  CE        70.5260   64.3120   -6.0330 C.3   624  LYS624      0.1093
     91  NZ        69.3300   64.0100   -5.1680 N.3   624  LYS624     -0.1314
@<TRIPOS>BOND
     1    81    80    2
     2    89    90    1
     3    89    88    1
     4    63    61    1
     5    90    91    1
     6    80    82   am
     7    80    79    1
     8    75    76    1
     9    46    45   ar
    10    46    44   ar
    11    88    87    1
    12    76    79    1
    13    76    77    1
    14    45    43   ar
    15    44    42   ar
    16    61    62    1
    17    61    60    1
    18    77    78    2
    19    57    60    1
    20    57    56    1
    21    57    58    1
    22    87    84    1
    23    43    42   ar
    24    83    84    1
    25    42    41    1
    26    59    58    2
    27    84    85    1
    28    58    64   am
    29    40    39    2
    30    36    34   am
    31    41    38    1
    32     8     7    2
    33    38    39    1
    34    38    37    1
    35    27    25   am
    36    39    47   am
    37     4     3    2
    38    74    72   ar
    39    74    73   ar
    40    72    70   ar
    41    64    65    1
    42    26    25    2
    43    85    86    2
    44    17    16    1
    45    17    18    1
    46    34    33    1
    47    34    35    2
    48     7     9   am
    49     7     6    1
    50    13    12    2
    51    25    24    1
    52    33    32    1
    53    19    18    2
    54    73    71   ar
    55    70    69   ar
    56    16    12   am
    57    12    11    1
    58    65    66    1
    59    65    68    1
    60    55    53   am
    61     3     2    1
    62     3    10   am
    63    47    48    1
    64    31    30    2
    65    71    69   ar
    66    69    68    1
    67    50    49    2
    68     2     5    1
    69     2     1    1
    70    11    10    1
    71    11    14    1
    72    48    49    1
    73    48    51    1
    74     6     5    1
    75    66    67    2
    76    24    21    1
    77    32    29    1
    78    53    54    2
    79    53    52    1
    80    30    29    1
    81    29    28    1
    82    14    15    1
    83    20    21    1
    84    21    22    1
    85    51    52    1
    86    22    23    2
