@<TRIPOS>MOLECULE
tmp/1blhA00.pdb
 103 96 0 0 0
SMALL
GASTEIGER

@<TRIPOS>ATOM
      1  N          6.1430  -16.2430  -12.0800 N.3    38  ALA38      -0.1231
      2  CA         5.4630  -14.9420  -11.8750 C.3    38  ALA38       0.1694
      3  C          4.5600  -14.6150  -13.0450 C.2    38  ALA38       0.2592
      4  O          3.8530  -15.5490  -13.5060 O.2    38  ALA38      -0.2718
      5  CB         6.4930  -13.9140  -11.4270 C.3    38  ALA38       0.0304
      6  N          4.4310  -13.3550  -13.4670 N.am   39  SER39      -0.1952
      7  CA         3.5420  -12.8990  -14.5130 C.3    39  SER39       0.1924
      8  C          3.8620  -13.4450  -15.9230 C.2    39  SER39       0.2314
      9  O          3.0400  -13.1940  -16.8040 O.2    39  SER39      -0.2863
     10  CB         3.5150  -11.3770  -14.6280 C.3    39  SER39       0.2116
     11  OG         2.8040  -10.8410  -13.5870 O.3    39  SER39      -0.2180
     12  N          1.3020  -15.3700  -17.4730 N.3    42  LYS42      -0.1245
     13  CA         0.1300  -14.6600  -18.0760 C.3    42  LYS42       0.1561
     14  C          0.0720  -15.0130  -19.5910 C.2    42  LYS42       0.2260
     15  O         -1.0350  -15.1420  -20.1990 O.2    42  LYS42      -0.2867
     16  CB         0.1990  -13.1750  -17.7850 C.3    42  LYS42       0.0271
     17  CG        -0.1540  -12.8720  -16.2750 C.3    42  LYS42       0.0035
     18  CD        -0.0970  -11.3770  -15.9660 C.3    42  LYS42       0.0206
     19  CE        -0.6850  -10.8560  -14.6510 C.3    42  LYS42       0.1093
     20  NZ         0.0500  -11.2970  -13.4880 N.3    42  LYS42      -0.1314
     21  N         -3.0530   -5.0780   -7.5870 N.3    72  TYR72      -0.1241
     22  CA        -2.4420   -4.7450   -8.8510 C.3    72  TYR72       0.1605
     23  C         -3.3160   -5.2760  -10.0190 C.2    72  TYR72       0.2264
     24  O         -2.9380   -6.1550  -10.7970 O.2    72  TYR72      -0.2867
     25  CB        -0.9930   -5.1750   -9.0970 C.3    72  TYR72       0.0534
     26  CG        -0.2150   -5.0510   -7.8030 C.ar   72  TYR72      -0.0201
     27  CD1       -0.3680   -6.0230   -6.8140 C.ar   72  TYR72      -0.0009
     28  CD2        0.6270   -3.9620   -7.5420 C.ar   72  TYR72      -0.0009
     29  CE1        0.2880   -5.9310   -5.5890 C.ar   72  TYR72       0.0417
     30  CE2        1.3170   -3.8450   -6.3300 C.ar   72  TYR72       0.0417
     31  CZ         1.0970   -4.8120   -5.3420 C.ar   72  TYR72       0.1957
     32  OH         1.7000   -4.7430   -4.0890 O.3    72  TYR72      -0.2866
     33  N         -0.2450   -6.0670  -17.1050 N.3    97  SER97      -0.1217
     34  CA         0.0120   -7.1730  -16.1870 C.3    97  SER97       0.1889
     35  C         -1.0420   -7.2530  -15.0720 C.2    97  SER97       0.2288
     36  O         -0.7140   -7.6180  -13.9070 O.2    97  SER97      -0.2866
     37  CB         1.4260   -7.0420  -15.6370 C.3    97  SER97       0.2089
     38  OG         1.9960   -8.2790  -15.3560 O.3    97  SER97      -0.2183
     39  N         -3.5920   -8.4210  -12.5410 N.3    99  ASN99      -0.1240
     40  CA        -3.7320   -9.7210  -11.8300 C.3    99  ASN99       0.1653
     41  C         -5.1180  -10.3240  -11.9150 C.2    99  ASN99       0.2266
     42  O         -5.2110  -11.5450  -12.0350 O.2    99  ASN99      -0.2867
     43  CB        -3.1210   -9.6510  -10.4570 C.3    99  ASN99       0.1155
     44  CG        -1.6100   -9.5570  -10.5470 C.2    99  ASN99       0.2627
     45  OD1       -0.9800  -10.1530  -11.4190 O.2    99  ASN99      -0.2716
     46  ND2       -1.0660   -8.8710   -9.5010 N.am   99  ASN99      -0.0877
     47  N         -3.3850  -15.5210   -8.5870 N.3   133  GLU133     -0.1231
     48  CA        -2.7150  -14.2740   -8.2650 C.3   133  GLU133      0.1699
     49  C         -3.4390  -13.7330   -6.9920 C.2   133  GLU133      0.2592
     50  O         -4.6410  -14.0130   -6.8440 O.2   133  GLU133     -0.2718
     51  CB        -2.8860  -13.1600   -9.3090 C.3   133  GLU133      0.0402
     52  CG        -2.5310  -13.6880  -10.7730 C.3   133  GLU133      0.1161
     53  CD        -1.0770  -13.3860  -11.0690 C.2   133  GLU133      0.3649
     54  OE1       -0.4430  -12.9860  -10.0440 O.co2 133  GLU133     -0.2457
     55  OE2       -0.6030  -13.4740  -12.2270 O.co2 133  GLU133     -0.2457
     56  N         -2.6870  -13.0600   -6.1150 N.am  134  ILE134     -0.1980
     57  CA        -1.2850  -12.7360   -6.2020 C.3   134  ILE134      0.1595
     58  C         -0.3720  -13.7200   -5.4690 C.2   134  ILE134      0.2287
     59  O          0.8680  -13.6150   -5.6160 O.2   134  ILE134     -0.2864
     60  CB        -0.9970  -11.2710   -5.7390 C.3   134  ILE134      0.0276
     61  CG1       -1.4360  -11.0810   -4.2410 C.3   134  ILE134      0.0022
     62  CG2       -1.5350  -10.1150   -6.5940 C.3   134  ILE134      0.0022
     63  CD1       -0.8570   -9.6930   -3.7620 C.3   134  ILE134      0.0001
     64  N          2.8680  -15.3410   -6.3470 N.3   137  ASN137     -0.1240
     65  CA         4.1090  -14.5620   -6.3320 C.3   137  ASN137      0.1653
     66  C          4.9890  -14.7630   -5.0990 C.2   137  ASN137      0.2266
     67  O          6.1160  -14.1800   -5.0320 O.2   137  ASN137     -0.2867
     68  CB         3.7800  -13.0430   -6.5160 C.3   137  ASN137      0.1155
     69  CG         3.1130  -12.9840   -7.9150 C.2   137  ASN137      0.2627
     70  OD1        3.8200  -13.4270   -8.8320 O.2   137  ASN137     -0.2716
     71  ND2        1.8640  -12.5970   -8.0380 N.am  137  ASN137     -0.0877
     72  N          7.2410   -9.9470  -19.3080 N.3   202  SER202     -0.1202
     73  CA         8.0950   -9.8650  -18.0950 C.3   202  SER202      0.2020
     74  C          7.2910  -10.2990  -16.8520 C.2   202  SER202      0.2619
     75  O          6.0530  -10.4310  -16.8760 O.2   202  SER202     -0.2717
     76  CB         8.6410   -8.4430  -18.0120 C.3   202  SER202      0.2103
     77  OG         7.4620   -7.7130  -17.6460 O.3   202  SER202     -0.2182
     78  N          8.0010  -10.5550  -15.7700 N.am  203  GLY203     -0.1942
     79  CA         7.5640  -11.0270  -14.4750 C.3   203  GLY203      0.2014
     80  C          8.5410  -10.6820  -13.3390 C.2   203  GLY203      0.2639
     81  O          9.7760  -10.4110  -13.5000 O.2   203  GLY203     -0.2714
     82  N          7.9320  -10.6240  -12.1480 N.am  204  GLN204     -0.1963
     83  CA         8.6180  -10.3400  -10.8970 C.3   204  GLN204      0.1733
     84  C          7.8970  -10.9080   -9.6680 C.2   204  GLN204      0.2616
     85  O          6.8020  -10.3980   -9.3750 O.2   204  GLN204     -0.2715
     86  CB         8.7950   -8.8210  -10.6700 C.3   204  GLN204      0.0408
     87  CG        10.2720   -8.6030  -10.3390 C.3   204  GLN204      0.0908
     88  CD        10.5270   -7.3980   -9.4790 C.2   204  GLN204      0.2608
     89  OE1       10.2730   -6.2320   -9.7920 O.2   204  GLN204     -0.2717
     90  NE2       11.0950   -7.6630   -8.2940 N.am  204  GLN204     -0.0878
     91  N          8.4690  -11.9430   -9.0780 N.am  205  ALA205     -0.1963
     92  CA         7.8930  -12.5420   -7.8550 C.3   205  ALA205      0.1728
     93  C          8.1830  -11.5730   -6.6860 C.2   205  ALA205      0.2616
     94  O          8.8520  -10.4800   -6.7960 O.2   205  ALA205     -0.2715
     95  CB         8.3150  -13.9640   -7.6200 C.3   205  ALA205      0.0334
     96  N          7.5390  -11.9060   -5.5710 N.am  206  ILE206     -0.1977
     97  CA         7.5990  -10.9530   -4.4040 C.3   206  ILE206      0.1596
     98  C          8.9440  -11.0270   -3.6770 C.2   206  ILE206      0.2287
     99  O          9.5590  -10.0240   -3.2780 O.2   206  ILE206     -0.2864
    100  CB         6.3120  -11.1270   -3.5260 C.3   206  ILE206      0.0276
    101  CG1        5.0780  -10.4540   -4.2400 C.3   206  ILE206      0.0022
    102  CG2        6.5300  -10.5660   -2.0900 C.3   206  ILE206      0.0022
    103  CD1        3.7170  -11.1040   -3.7730 C.3   206  ILE206      0.0001
@<TRIPOS>BOND
     1    15    14    2
     2    14    13    1
     3    72    73    1
     4    73    76    1
     5    73    74    1
     6    13    16    1
     7    13    12    1
     8    76    77    1
     9    16    17    1
    10    33    34    1
    11    75    74    2
    12    74    78   am
    13     9     8    2
    14    17    18    1
    15    34    37    1
    16    34    35    1
    17    18    19    1
    18     8     7    1
    19    78    79    1
    20    37    38    1
    21    35    36    2
    22    19    20    1
    23    10     7    1
    24    10    11    1
    25     7     6    1
    26    79    80    1
    27     4     3    2
    28    81    80    2
    29     6     3   am
    30    80    82   am
    31     3     2    1
    32    39    40    1
    33    55    53   ar
    34    82    83    1
    35     1     2    1
    36    42    41    2
    37    41    40    1
    38     2     5    1
    39    40    43    1
    40    45    44    2
    41    53    52    1
    42    53    54   ar
    43    83    86    1
    44    83    84    1
    45    24    23    2
    46    52    51    1
    47    86    87    1
    48    44    43    1
    49    44    46   am
    50    87    88    1
    51    23    22    1
    52    89    88    2
    53    84    85    2
    54    84    91   am
    55    88    90   am
    56    51    48    1
    57    25    22    1
    58    25    26    1
    59    91    92    1
    60    22    21    1
    61    70    69    2
    62    47    48    1
    63    48    49    1
    64    71    69   am
    65    69    68    1
    66    92    95    1
    67    92    93    1
    68    26    28   ar
    69    26    27   ar
    70    28    30   ar
    71    49    50    2
    72    49    56   am
    73    27    29   ar
    74    94    93    2
    75    93    96   am
    76    62    60    1
    77    68    65    1
    78    64    65    1
    79    65    66    1
    80    30    31   ar
    81    57    56    1
    82    57    60    1
    83    57    58    1
    84    60    61    1
    85    59    58    2
    86    29    31   ar
    87    96    97    1
    88    31    32    1
    89    66    67    2
    90    97    98    1
    91    97   100    1
    92    61    63    1
    93   101   103    1
    94   101   100    1
    95    98    99    2
    96   100   102    1
