@<TRIPOS>MOLECULE
tmp/1bllA00.pdb
 158 143 0 0 0
SMALL
GASTEIGER

@<TRIPOS>ATOM
      1  N         62.1870   61.6950   10.1670 N.3   247  LYS247     -0.1245
      2  CA        62.4380   60.2780   10.0430 C.3   247  LYS247      0.1561
      3  C         61.2210   59.5720    9.4660 C.2   247  LYS247      0.2260
      4  O         60.1180   59.6990   10.0010 O.2   247  LYS247     -0.2867
      5  CB        62.7910   59.7230   11.4340 C.3   247  LYS247      0.0271
      6  CG        62.6140   58.2170   11.5080 C.3   247  LYS247      0.0035
      7  CD        63.6110   57.4670   12.3120 C.3   247  LYS247      0.0206
      8  CE        63.1720   57.3040   13.7170 C.3   247  LYS247      0.1093
      9  NZ        63.1430   55.8840   14.0620 N.3   247  LYS247     -0.1314
     10  N         59.6960   49.8480   11.8440 N.3   252  ASP252     -0.1239
     11  CA        60.9700   49.5420   12.4730 C.3   252  ASP252      0.1674
     12  C         60.9030   48.1910   13.2040 C.2   252  ASP252      0.2266
     13  O         60.4110   48.0670   14.3090 O.2   252  ASP252     -0.2867
     14  CB        61.3580   50.6850   13.4550 C.3   252  ASP252      0.1410
     15  CG        62.7680   50.6380   14.1020 C.2   252  ASP252      0.3668
     16  OD1       63.5400   49.7730   13.6320 O.co2 252  ASP252     -0.2456
     17  OD2       63.0780   51.4630   15.0120 O.co2 252  ASP252     -0.2456
     18  N         63.8430   43.4470   17.1920 N.3   259  LYS259     -0.1245
     19  CA        62.9980   43.8110   18.3030 C.3   259  LYS259      0.1561
     20  C         62.2060   42.6630   18.8990 C.2   259  LYS259      0.2260
     21  O         61.8970   41.6850   18.2380 O.2   259  LYS259     -0.2867
     22  CB        61.9940   44.8700   17.8850 C.3   259  LYS259      0.0271
     23  CG        62.5710   46.2220   17.6580 C.3   259  LYS259      0.0035
     24  CD        61.4170   47.1280   17.2900 C.3   259  LYS259      0.0206
     25  CE        61.9790   48.4980   17.0050 C.3   259  LYS259      0.1093
     26  NZ        62.7120   49.0110   18.1420 N.3   259  LYS259     -0.1314
     27  N         55.4810   50.2800   15.9740 N.3   267  MET267     -0.1245
     28  CA        56.5500   50.7090   15.0810 C.3   267  MET267      0.1570
     29  C         56.1150   51.0880   13.6800 C.2   267  MET267      0.2261
     30  O         56.9510   51.6380   12.9570 O.2   267  MET267     -0.2867
     31  CB        57.6260   49.6490   14.9200 C.3   267  MET267      0.0387
     32  CG        58.3850   49.3380   16.2040 C.3   267  MET267      0.0595
     33  SD        58.6280   50.7800   17.2510 S.3   267  MET267     -0.1393
     34  CE        60.0430   51.4650   16.5000 C.3   267  MET267      0.0692
     35  N         56.8020   54.7580   13.2450 N.3   270  ASP270     -0.1239
     36  CA        58.1870   55.2310   13.2580 C.3   270  ASP270      0.1674
     37  C         58.5370   56.1420   12.0680 C.2   270  ASP270      0.2266
     38  O         59.6850   56.5400   11.8400 O.2   270  ASP270     -0.2867
     39  CB        59.0960   54.0100   13.2900 C.3   270  ASP270      0.1410
     40  CG        60.3880   54.2810   14.0200 C.2   270  ASP270      0.3668
     41  OD1       60.3420   54.8780   15.0900 O.co2 270  ASP270     -0.2456
     42  OD2       61.4420   53.8870   13.5350 O.co2 270  ASP270     -0.2456
     43  N         74.4850   48.6350   16.0600 N.3   327  ASN327     -0.1240
     44  CA        73.1510   48.1910   16.3600 C.3   327  ASN327      0.1653
     45  C         72.3250   48.7040   15.2050 C.2   327  ASN327      0.2266
     46  O         72.2820   49.8940   14.8740 O.2   327  ASN327     -0.2867
     47  CB        72.6790   48.7860   17.6720 C.3   327  ASN327      0.1155
     48  CG        71.3440   48.2460   18.1430 C.2   327  ASN327      0.2627
     49  OD1       70.3480   48.3140   17.4470 O.2   327  ASN327     -0.2716
     50  ND2       71.2350   47.6750   19.3350 N.am  327  ASN327     -0.0877
     51  N         69.0880   48.6570   15.0420 N.3   329  ASP329     -0.1225
     52  CA        67.8820   49.3030   15.5300 C.3   329  ASP329      0.1805
     53  C         68.1210   50.7490   15.9310 C.2   329  ASP329      0.2598
     54  O         67.3090   51.3890   16.6190 O.2   329  ASP329     -0.2718
     55  CB        67.3320   48.4790   16.7130 C.3   329  ASP329      0.1424
     56  CG        65.8550   48.6460   17.1300 C.2   329  ASP329      0.3668
     57  OD1       65.0530   49.2150   16.3570 O.co2 329  ASP329     -0.2456
     58  OD2       65.5060   48.2200   18.2350 O.co2 329  ASP329     -0.2456
     59  N         69.2550   51.2920   15.5140 N.am  330  ALA330     -0.1966
     60  CA        69.5180   52.7220   15.6570 C.3   330  ALA330      0.1728
     61  C         69.6240   53.2540   14.2210 C.2   330  ALA330      0.2616
     62  O         70.6730   53.7250   13.7710 O.2   330  ALA330     -0.2715
     63  CB        70.8260   52.9180   16.4200 C.3   330  ALA330      0.0334
     64  N         68.5150   53.1070   13.4690 N.am  331  GLU331     -0.1977
     65  CA        68.4590   53.4070   12.0350 C.3   331  GLU331      0.1602
     66  C         67.9570   54.7730   11.6980 C.2   331  GLU331      0.2287
     67  O         68.1980   55.3180   10.6190 O.2   331  GLU331     -0.2864
     68  CB        67.5800   52.3760   11.2590 C.3   331  GLU331      0.0415
     69  CG        66.0450   52.4230   11.2630 C.3   331  GLU331      0.1163
     70  CD        65.4310   52.3370   12.6500 C.2   331  GLU331      0.3649
     71  OE1       65.9040   51.4880   13.3790 O.co2 331  GLU331     -0.2457
     72  OE2       64.5200   53.1050   12.9830 O.co2 331  GLU331     -0.2457
     73  N         68.9600   57.4100   13.2000 N.3   333  ARG333     -0.1245
     74  CA        70.2350   58.1440   13.2610 C.3   333  ARG333      0.1563
     75  C         70.8370   58.2000   11.8670 C.2   333  ARG333      0.2260
     76  O         71.2120   59.2430   11.3460 O.2   333  ARG333     -0.2867
     77  CB        71.2960   57.4340   14.1740 C.3   333  ARG333      0.0307
     78  CG        71.1480   57.1890   15.7010 C.3   333  ARG333      0.0489
     79  CD        69.6480   57.2910   16.0240 C.3   333  ARG333      0.2205
     80  NE        69.1030   56.2390   16.8500 N.pl3 333  ARG333     -0.0865
     81  CZ        67.9650   55.6010   16.5950 C.cat 333  ARG333      0.5346
     82  NH1       67.1960   55.7800   15.5270 N.pl3 333  ARG333      0.1354
     83  NH2       67.6290   54.7030   17.5020 N.pl3 333  ARG333      0.1354
     84  N         60.8590   59.8580   15.9380 N.3   356  THR356     -0.1203
     85  CA        60.5290   58.8800   16.9770 C.3   356  THR356      0.1994
     86  C         61.8240   58.0710   17.1290 C.2   356  THR356      0.2618
     87  O         61.9820   56.9280   16.6730 O.2   356  THR356     -0.2717
     88  CB        59.3410   58.0450   16.4630 C.3   356  THR356      0.1784
     89  OG1       59.7430   57.5400   15.1990 O.3   356  THR356     -0.2211
     90  CG2       58.0610   58.8380   16.2960 C.3   356  THR356      0.0376
     91  N         62.7980   58.7330   17.7590 N.am  357  LEU357     -0.1965
     92  CA        64.1680   58.2450   17.7730 C.3   357  LEU357      0.1728
     93  C         64.6280   57.2190   18.7800 C.2   357  LEU357      0.2617
     94  O         65.3550   56.3010   18.4190 O.2   357  LEU357     -0.2715
     95  CB        65.1390   59.4300   17.8990 C.3   357  LEU357      0.0311
     96  CG        66.2070   59.7880   16.8710 C.3   357  LEU357      0.0022
     97  CD1       67.4660   59.9650   17.6670 C.3   357  LEU357      0.0001
     98  CD2       66.2880   58.8030   15.7300 C.3   357  LEU357      0.0001
     99  N         64.3050   57.4170   20.0620 N.am  358  THR358     -0.1937
    100  CA        64.7910   56.5670   21.1130 C.3   358  THR358      0.2028
    101  C         63.6660   56.3090   22.0750 C.2   358  THR358      0.2643
    102  O         62.8710   57.1800   22.3450 O.2   358  THR358     -0.2714
    103  CB        66.0020   57.2380   21.8990 C.3   358  THR358      0.1808
    104  OG1       65.4870   58.2730   22.7170 O.3   358  THR358     -0.2208
    105  CG2       67.0480   57.8810   21.0140 C.3   358  THR358      0.0379
    106  N         63.6490   55.1210   22.6510 N.am  359  GLY359     -0.1939
    107  CA        62.7860   54.7610   23.7610 C.3   359  GLY359      0.2014
    108  C         63.2360   55.4840   25.0360 C.2   359  GLY359      0.2638
    109  O         62.4550   55.6360   25.9780 O.2   359  GLY359     -0.2714
    110  N         64.4890   55.9640   25.0760 N.am  360  ALA360     -0.1977
    111  CA        65.0580   56.6460   26.2240 C.3   360  ALA360      0.1597
    112  C         64.4400   58.0100   26.4220 C.2   360  ALA360      0.2287
    113  O         64.3860   58.4920   27.5500 O.2   360  ALA360     -0.2864
    114  CB        66.5360   56.8190   26.0400 C.3   360  ALA360      0.0319
    115  N         61.4020   57.1830   28.4120 N.3   363  ILE363     -0.1245
    116  CA        61.7080   57.0030   29.8330 C.3   363  ILE363      0.1561
    117  C         61.9710   58.3430   30.5090 C.2   363  ILE363      0.2260
    118  O         61.7070   58.5220   31.7040 O.2   363  ILE363     -0.2867
    119  CB        62.9500   56.0240   29.9070 C.3   363  ILE363      0.0252
    120  CG1       62.5850   54.6280   29.3390 C.3   363  ILE363      0.0019
    121  CG2       63.4460   55.9050   31.3100 C.3   363  ILE363      0.0019
    122  CD1       61.2700   54.0140   29.8520 C.3   363  ILE363      0.0001
    123  N         75.7120   54.0170   18.1500 N.3   418  ILE418     -0.1245
    124  CA        75.2210   53.8580   19.5150 C.3   418  ILE418      0.1561
    125  C         76.4060   53.9790   20.4600 C.2   418  ILE418      0.2260
    126  O         77.5470   53.5790   20.1770 O.2   418  ILE418     -0.2867
    127  CB        74.5620   52.4840   19.9020 C.3   418  ILE418      0.0252
    128  CG1       75.2420   51.2960   19.2180 C.3   418  ILE418      0.0019
    129  CG2       73.0790   52.6040   19.6190 C.3   418  ILE418      0.0019
    130  CD1       75.0760   49.9860   20.0200 C.3   418  ILE418      0.0001
    131  N         73.8690   52.8080   28.3860 N.3   422  ARG422     -0.1245
    132  CA        72.4360   52.9940   28.4500 C.3   422  ARG422      0.1563
    133  C         72.1010   54.4420   28.8100 C.2   422  ARG422      0.2260
    134  O         71.1520   54.9990   28.2590 O.2   422  ARG422     -0.2867
    135  CB        71.8270   52.0160   29.4880 C.3   422  ARG422      0.0307
    136  CG        72.7170   51.4040   30.6090 C.3   422  ARG422      0.0489
    137  CD        73.3440   52.2770   31.7300 C.3   422  ARG422      0.2205
    138  NE        72.3720   52.9630   32.5840 N.pl3 422  ARG422     -0.0865
    139  CZ        71.8000   52.4700   33.6940 C.cat 422  ARG422      0.5346
    140  NH1       72.2130   51.3370   34.2700 N.pl3 422  ARG422      0.1354
    141  NH2       70.8850   53.2180   34.3150 N.pl3 422  ARG422      0.1354
    142  N         70.3150   58.1600   26.8840 N.3   425  GLY425     -0.1225
    143  CA        70.0730   57.5600   25.5820 C.3   425  GLY425      0.1811
    144  C         69.6270   58.5180   24.5110 C.2   425  GLY425      0.2280
    145  O         69.9980   58.3100   23.3500 O.2   425  GLY425     -0.2866
    146  N         59.4040   60.3710   20.2450 N.3   448  ALA448     -0.1245
    147  CA        59.0730   59.0190   20.6810 C.3   448  ALA448      0.1562
    148  C         58.2180   58.8790   21.9210 C.2   448  ALA448      0.2260
    149  O         57.3840   57.9780   21.9720 O.2   448  ALA448     -0.2867
    150  CB        60.3480   58.2510   20.8920 C.3   448  ALA448      0.0290
    151  N         54.4290   59.8580   20.6820 N.3   451  MET451     -0.1245
    152  CA        53.9590   59.0890   19.5410 C.3   451  MET451      0.1570
    153  C         52.5010   58.6020   19.6940 C.2   451  MET451      0.2261
    154  O         51.6880   58.5920   18.7590 O.2   451  MET451     -0.2867
    155  CB        54.9190   57.9250   19.4120 C.3   451  MET451      0.0387
    156  CG        54.8780   57.2220   18.0830 C.3   451  MET451      0.0595
    157  SD        56.0810   55.8840   18.0760 S.3   451  MET451     -0.1393
    158  CE        54.8960   54.8700   18.9120 C.3   451  MET451      0.0692
@<TRIPOS>BOND
     1     3     4    2
     2     3     2    1
     3     2     1    1
     4     2     5    1
     5    67    66    2
     6    68    69    1
     7    68    65    1
     8    69    70    1
     9    76    75    2
    10     5     6    1
    11     6     7    1
    12    66    65    1
    13    38    37    2
    14    10    11    1
    15    75    74    1
    16    65    64    1
    17    37    36    1
    18     7     8    1
    19    11    12    1
    20    11    14    1
    21    70    72   ar
    22    70    71   ar
    23    30    29    2
    24    73    74    1
    25    12    13    2
    26    35    36    1
    27    36    39    1
    28    74    77    1
    29    39    40    1
    30    14    15    1
    31    64    61   am
    32    42    40   ar
    33    16    15   ar
    34    29    28    1
    35     8     9    1
    36    62    61    2
    37    40    41   ar
    38    15    17   ar
    39    77    78    1
    40    61    60    1
    41    46    45    2
    42    31    28    1
    43    31    32    1
    44    51    52    1
    45    28    27    1
    46    89    88    1
    47    45    44    1
    48    59    60    1
    49    59    53   am
    50    82    81    1
    51    52    53    1
    52    52    55    1
    53    60    63    1
    54    78    79    1
    55    98    96    1
    56    53    54    2
    57    84    85    1
    58    79    80    1
    59    43    44    1
    60    32    33    1
    61    90    88    1
    62    57    56   ar
    63    44    47    1
    64    88    85    1
    65    34    33    1
    66    81    80    2
    67    81    83    1
    68    87    86    2
    69    55    56    1
    70    96    97    1
    71    96    95    1
    72    85    86    1
    73    25    24    1
    74    25    26    1
    75    86    91   am
    76    56    58   ar
    77    18    19    1
    78    24    23    1
    79    49    48    2
    80    23    22    1
    81    47    48    1
    82    91    92    1
    83    92    95    1
    84    92    93    1
    85    22    19    1
    86   157   156    1
    87   157   158    1
    88   156   155    1
    89    48    50   am
    90   123   124    1
    91    21    20    2
    92    19    20    1
    93    94    93    2
    94   154   153    2
    95    93    99   am
    96   128   127    1
    97   128   130    1
    98   155   152    1
    99   124   127    1
   100   124   125    1
   101   152   153    1
   102   152   151    1
   103   129   127    1
   104    99   100    1
   105   126   125    2
   106   146   147    1
   107   147   150    1
   108   147   148    1
   109   105   103    1
   110   100   103    1
   111   100   101    1
   112   103   104    1
   113   148   149    2
   114   101   102    2
   115   101   106   am
   116   106   107    1
   117   145   144    2
   118   107   108    1
   119   144   143    1
   120   108   110   am
   121   108   109    2
   122   110   111    1
   123   143   142    1
   124   114   111    1
   125   111   112    1
   126   112   113    2
   127   134   133    2
   128   131   132    1
   129   115   116    1
   130   132   133    1
   131   132   135    1
   132   120   122    1
   133   120   119    1
   134   135   136    1
   135   116   119    1
   136   116   117    1
   137   119   121    1
   138   117   118    2
   139   136   137    1
   140   137   138    1
   141   138   139    2
   142   139   140    1
   143   139   141    1
