@<TRIPOS>MOLECULE
tmp/1blsA00.pdb
 105 98 0 0 0
SMALL
GASTEIGER

@<TRIPOS>ATOM
      1  N         21.7570   51.9410   23.7220 N.3    63  SER63      -0.1217
      2  CA        22.7740   52.1240   22.6920 C.3    63  SER63       0.1889
      3  C         23.7590   50.9960   22.5230 C.2    63  SER63       0.2288
      4  O         24.4860   51.0120   21.4960 O.2    63  SER63      -0.2866
      5  CB        23.4460   53.4900   22.8070 C.3    63  SER63       0.2089
      6  OG        22.4720   54.5110   23.0150 O.3    63  SER63      -0.2183
      7  N         23.7780   48.9880   19.3030 N.3    66  LYS66      -0.1245
      8  CA        24.5070   49.4610   18.1160 C.3    66  LYS66       0.1561
      9  C         25.7140   48.6000   17.7660 C.2    66  LYS66       0.2260
     10  O         26.1950   48.6040   16.6150 O.2    66  LYS66      -0.2867
     11  CB        24.9550   50.9120   18.2580 C.3    66  LYS66       0.0271
     12  CG        23.7780   51.9020   18.3980 C.3    66  LYS66       0.0035
     13  CD        24.2710   53.2020   19.0220 C.3    66  LYS66       0.0206
     14  CE        23.4150   54.3810   18.6370 C.3    66  LYS66       0.1093
     15  NZ        22.4340   54.7100   19.6970 N.3    66  LYS66      -0.1314
     16  N         20.2100   63.3310   16.5930 N.3   118  LEU118     -0.1231
     17  CA        20.3580   62.3290   17.6540 C.3   118  LEU118      0.1693
     18  C         19.1900   61.3460   17.6170 C.2   118  LEU118      0.2591
     19  O         19.4040   60.1230   17.6570 O.2   118  LEU118     -0.2718
     20  CB        20.5320   63.0580   18.9920 C.3   118  LEU118      0.0284
     21  CG        20.4900   62.1970   20.2540 C.3   118  LEU118      0.0019
     22  CD1       21.7460   61.3550   20.4060 C.3   118  LEU118      0.0001
     23  CD2       20.3270   63.1180   21.4600 C.3   118  LEU118      0.0001
     24  N         17.9910   61.8960   17.5150 N.am  119  GLN119     -0.1979
     25  CA        16.7630   61.1130   17.4790 C.3   119  GLN119      0.1601
     26  C         15.9540   61.3440   16.1960 C.2   119  GLN119      0.2287
     27  O         16.0190   62.3990   15.5550 O.2   119  GLN119     -0.2864
     28  CB        15.8010   61.4530   18.6370 C.3   119  GLN119      0.0394
     29  CG        16.3250   61.2630   20.0320 C.3   119  GLN119      0.0908
     30  CD        16.6710   59.8410   20.3740 C.2   119  GLN119      0.2608
     31  OE1       16.2040   58.8790   19.7710 O.2   119  GLN119     -0.2717
     32  NE2       17.5330   59.7040   21.3850 N.am  119  GLN119     -0.0878
     33  N         27.1570   61.9360   17.0960 N.3   149  TYR149     -0.1241
     34  CA        26.4930   60.6960   17.5500 C.3   149  TYR149      0.1605
     35  C         24.9910   60.8640   17.3530 C.2   149  TYR149      0.2264
     36  O         24.4170   61.8610   17.8370 O.2   149  TYR149     -0.2867
     37  CB        26.8840   60.3630   18.9840 C.3   149  TYR149      0.0534
     38  CG        26.2410   59.1310   19.5660 C.ar  149  TYR149     -0.0201
     39  CD1       26.8360   57.8850   19.4190 C.ar  149  TYR149     -0.0009
     40  CD2       25.0470   59.2090   20.2850 C.ar  149  TYR149     -0.0009
     41  CE1       26.2700   56.7370   19.9670 C.ar  149  TYR149      0.0417
     42  CE2       24.4610   58.0720   20.8470 C.ar  149  TYR149      0.0417
     43  CZ        25.0840   56.8350   20.6790 C.ar  149  TYR149      0.1957
     44  OH        24.5470   55.6930   21.1980 O.3   149  TYR149     -0.2866
     45  N         21.1390   58.4290   16.4580 N.3   151  ASN151     -0.1240
     46  CA        20.3500   57.2220   16.1860 C.3   151  ASN151      0.1653
     47  C         19.8900   57.2370   14.7170 C.2   151  ASN151      0.2266
     48  O         19.8040   56.1820   14.0790 O.2   151  ASN151     -0.2867
     49  CB        19.1620   57.0780   17.1290 C.3   151  ASN151      0.1155
     50  CG        19.4680   56.7800   18.5740 C.2   151  ASN151      0.2627
     51  OD1       20.5130   56.2400   18.9410 O.2   151  ASN151     -0.2716
     52  ND2       18.5180   57.1330   19.4530 N.am  151  ASN151     -0.0877
     53  N         12.4540   55.1980   36.4580 N.3   203  ARG203     -0.1245
     54  CA        12.7930   56.5800   36.1210 C.3   203  ARG203      0.1563
     55  C         12.5700   57.5120   37.3010 C.2   203  ARG203      0.2260
     56  O         13.3910   57.5520   38.2390 O.2   203  ARG203     -0.2867
     57  CB        12.0400   57.0690   34.8790 C.3   203  ARG203      0.0307
     58  CG        12.6830   58.2930   34.2260 C.3   203  ARG203      0.0489
     59  CD        12.2000   58.4940   32.8370 C.3   203  ARG203      0.2205
     60  NE        10.7500   58.3500   32.7360 N.pl3 203  ARG203     -0.0865
     61  CZ        10.1060   58.3800   31.5660 C.cat 203  ARG203      0.5346
     62  NH1       10.8210   58.5320   30.4510 N.pl3 203  ARG203      0.1354
     63  NH2        8.7860   58.2710   31.4900 N.pl3 203  ARG203      0.1354
     64  N         10.8610   50.5180   27.4580 N.3   210  VAL210     -0.1231
     65  CA        11.0810   51.2330   26.2010 C.3   210  VAL210      0.1692
     66  C          9.8720   51.1340   25.2650 C.2   210  VAL210      0.2592
     67  O          9.2990   50.0450   25.1130 O.2   210  VAL210     -0.2718
     68  CB        12.3520   50.7080   25.4880 C.3   210  VAL210      0.0266
     69  CG1       12.1400   49.3200   24.8940 C.3   210  VAL210      0.0020
     70  CG2       12.8070   51.6850   24.4090 C.3   210  VAL210      0.0020
     71  N          9.5660   52.2550   24.6380 N.am  211  SER211     -0.1952
     72  CA         8.4470   52.3310   23.6920 C.3   211  SER211      0.1924
     73  C          8.9560   52.1480   22.2540 C.2   211  SER211      0.2314
     74  O         10.1240   52.3890   21.9310 O.2   211  SER211     -0.2863
     75  CB         7.6140   53.5880   23.8200 C.3   211  SER211      0.2116
     76  OG         8.3930   54.7380   24.0770 O.3   211  SER211     -0.2180
     77  N         18.4170   51.0220   19.4840 N.3   220  TYR220     -0.1241
     78  CA        18.3730   50.8750   20.9460 C.3   220  TYR220      0.1605
     79  C         17.4160   49.8810   21.5420 C.2   220  TYR220      0.2264
     80  O         17.2380   49.9210   22.7880 O.2   220  TYR220     -0.2867
     81  CB        18.0550   52.3010   21.5350 C.3   220  TYR220      0.0534
     82  CG        16.7470   52.8530   21.0080 C.ar  220  TYR220     -0.0201
     83  CD1       15.5110   52.4420   21.5120 C.ar  220  TYR220     -0.0009
     84  CD2       16.7560   53.8020   19.9860 C.ar  220  TYR220     -0.0009
     85  CE1       14.3150   52.9600   21.0140 C.ar  220  TYR220      0.0417
     86  CE2       15.5760   54.3280   19.4730 C.ar  220  TYR220      0.0417
     87  CZ        14.3550   53.9070   19.9920 C.ar  220  TYR220      0.1957
     88  OH        13.2250   54.4590   19.4550 O.3   220  TYR220     -0.2866
     89  N         21.7080   53.4810   27.2160 N.3   317  SER317     -0.1202
     90  CA        20.6170   53.8290   28.1130 C.3   317  SER317      0.2020
     91  C         19.2640   53.8800   27.4070 C.2   317  SER317      0.2619
     92  O         19.1530   54.0580   26.2010 O.2   317  SER317     -0.2717
     93  CB        20.8320   55.1960   28.7740 C.3   317  SER317      0.2103
     94  OG        22.0780   55.2530   29.4150 O.3   317  SER317     -0.2182
     95  N         18.2550   53.7400   28.2490 N.am  318  THR318     -0.1938
     96  CA        16.8410   53.8160   27.8590 C.3   318  THR318      0.2028
     97  C         16.2080   54.7140   28.9260 C.2   318  THR318      0.2642
     98  O         16.9630   55.1610   29.8160 O.2   318  THR318     -0.2714
     99  CB        16.0950   52.4860   27.5960 C.3   318  THR318      0.1808
    100  OG1       16.1080   51.6560   28.7900 O.3   318  THR318     -0.2208
    101  CG2       16.6470   51.7040   26.3760 C.3   318  THR318      0.0379
    102  N         14.9340   54.9810   28.8010 N.am  319  GLY319     -0.1954
    103  CA        14.2650   55.8420   29.7940 C.3   319  GLY319      0.1869
    104  C         14.5430   55.3310   31.2080 C.2   319  GLY319      0.2309
    105  O         14.7730   56.1520   32.1170 O.2   319  GLY319     -0.2863
@<TRIPOS>BOND
     1    48    47    2
     2    47    46    1
     3    27    26    2
     4    46    45    1
     5    46    49    1
     6    26    25    1
     7    16    17    1
     8    10     9    2
     9    33    34    1
    10    49    50    1
    11    35    34    1
    12    35    36    2
    13    25    24    1
    14    25    28    1
    15    24    18   am
    16    34    37    1
    17    18    17    1
    18    18    19    2
    19    17    20    1
    20     9     8    1
    21     8    11    1
    22     8     7    1
    23    11    12    1
    24    12    13    1
    25    50    51    2
    26    50    52   am
    27    14    13    1
    28    14    15    1
    29    28    29    1
    30    37    38    1
    31    20    21    1
    32    39    38   ar
    33    39    41   ar
    34    88    87    1
    35    86    84   ar
    36    86    87   ar
    37    77    78    1
    38    38    40   ar
    39    31    30    2
    40    41    43   ar
    41    84    82   ar
    42    87    85   ar
    43    29    30    1
    44    21    22    1
    45    21    23    1
    46    40    42   ar
    47    30    32   am
    48    43    42   ar
    49    43    44    1
    50    78    81    1
    51    78    79    1
    52    82    83   ar
    53    82    81    1
    54    85    83   ar
    55     4     3    2
    56    79    80    2
    57    74    73    2
    58    73    72    1
    59     3     2    1
    60     2     5    1
    61     2     1    1
    62     5     6    1
    63    72    75    1
    64    72    71    1
    65    75    76    1
    66    70    68    1
    67    71    66   am
    68    69    68    1
    69    67    66    2
    70    66    65    1
    71    68    65    1
    72    65    64    1
    73    92    91    2
    74   101    99    1
    75    89    90    1
    76    91    90    1
    77    91    95   am
    78    99    96    1
    79    99   100    1
    80    96    95    1
    81    96    97    1
    82    90    93    1
    83    93    94    1
    84   102    97   am
    85   102   103    1
    86    97    98    2
    87   103   104    1
    88    62    61    1
    89   104   105    2
    90    63    61    1
    91    61    60    2
    92    60    59    1
    93    59    58    1
    94    58    57    1
    95    57    54    1
    96    54    53    1
    97    54    55    1
    98    55    56    2
