@<TRIPOS>MOLECULE
tmp/1bm1A01.pdb
 118 113 0 0 0
SMALL
GASTEIGER

@<TRIPOS>ATOM
      1  N         29.4470   35.7510   30.7970 N.3    18  THR18      -0.1203
      2  CA        30.6210   36.4830   31.2730 C.3    18  THR18       0.1994
      3  C         30.1580   37.7670   31.9500 C.2    18  THR18       0.2617
      4  O         30.7050   38.1800   32.9700 O.2    18  THR18      -0.2717
      5  CB        31.5570   36.8820   30.0940 C.3    18  THR18       0.1784
      6  OG1       32.2570   35.7280   29.6150 O.3    18  THR18      -0.2211
      7  CG2       32.5680   37.9460   30.5240 C.3    18  THR18       0.0376
      8  N         29.1870   38.4270   31.3320 N.am   19  LEU19      -0.1979
      9  CA        28.6410   39.6690   31.8460 C.3    19  LEU19       0.1596
     10  C         27.8590   39.4070   33.1270 C.2    19  LEU19       0.2287
     11  O         27.6920   40.2960   33.9600 O.2    19  LEU19      -0.2864
     12  CB        27.7250   40.2870   30.7910 C.3    19  LEU19       0.0297
     13  CG        27.6320   41.8110   30.7500 C.3    19  LEU19       0.0022
     14  CD1       29.0110   42.4030   30.4440 C.3    19  LEU19       0.0001
     15  CD2       26.6260   42.2250   29.6870 C.3    19  LEU19       0.0001
     16  N         28.5330   36.7990   35.5490 N.3    21  PHE21      -0.1227
     17  CA        29.4290   36.5320   36.6730 C.3    21  PHE21       0.1736
     18  C         30.2060   37.7890   36.9970 C.2    21  PHE21       0.2595
     19  O         30.7490   37.9290   38.0840 O.2    21  PHE21      -0.2718
     20  CB        30.4270   35.4210   36.3350 C.3    21  PHE21       0.0547
     21  CG        29.7940   34.0940   36.0270 C.ar   21  PHE21      -0.0202
     22  CD1       28.5100   33.7910   36.4690 C.ar   21  PHE21      -0.0042
     23  CD2       30.4880   33.1460   35.2860 C.ar   21  PHE21      -0.0042
     24  CE1       27.9290   32.5700   36.1800 C.ar   21  PHE21      -0.0003
     25  CE2       29.9180   31.9230   34.9900 C.ar   21  PHE21      -0.0003
     26  CZ        28.6340   31.6330   35.4370 C.ar   21  PHE21      -0.0000
     27  N         30.2730   38.6920   36.0310 N.am   22  LEU22      -0.1980
     28  CA        30.9920   39.9380   36.1950 C.3    22  LEU22       0.1596
     29  C         30.2590   40.8620   37.1630 C.2    22  LEU22       0.2287
     30  O         30.8920   41.5910   37.9330 O.2    22  LEU22      -0.2864
     31  CB        31.1480   40.6170   34.8370 C.3    22  LEU22       0.0297
     32  CG        32.4560   41.3480   34.5380 C.3    22  LEU22       0.0022
     33  CD1       33.6330   40.3970   34.6700 C.3    22  LEU22       0.0001
     34  CD2       32.3940   41.9220   33.1300 C.3    22  LEU22       0.0001
     35  N         30.0120   38.9300   40.9410 N.3    25  GLY25      -0.1210
     36  CA        31.2490   38.9780   41.7000 C.3    25  GLY25       0.1956
     37  C         31.6930   40.3640   42.1310 C.2    25  GLY25       0.2612
     38  O         32.7030   40.4980   42.8180 O.2    25  GLY25      -0.2717
     39  N         30.9650   41.3980   41.7250 N.am   26  MET26      -0.1965
     40  CA        31.3180   42.7620   42.1040 C.3    26  MET26       0.1736
     41  C         31.1810   43.0120   43.6180 C.2    26  MET26       0.2617
     42  O         31.7130   43.9970   44.1520 O.2    26  MET26      -0.2715
     43  CB        30.4740   43.7700   41.3150 C.3    26  MET26       0.0427
     44  CG        28.9990   43.7830   41.6550 C.3    26  MET26       0.0599
     45  SD        28.1020   44.9250   40.5870 S.3    26  MET26      -0.1393
     46  CE        28.9060   46.5230   40.9960 C.3    26  MET26       0.0692
     47  N         30.4730   42.1240   44.3080 N.am   27  GLY27      -0.1940
     48  CA        30.2910   42.2960   45.7360 C.3    27  GLY27       0.2014
     49  C         31.2230   41.5000   46.6280 C.2    27  GLY27       0.2639
     50  O         31.4480   41.8820   47.7760 O.2    27  GLY27      -0.2714
     51  N         31.7870   40.4140   46.1090 N.am   28  VAL28      -0.1963
     52  CA        32.6620   39.5630   46.9130 C.3    28  VAL28       0.1727
     53  C         33.8390   40.2120   47.6320 C.2    28  VAL28       0.2616
     54  O         34.8820   40.5060   47.0380 O.2    28  VAL28      -0.2715
     55  CB        33.1410   38.3030   46.1500 C.3    28  VAL28       0.0290
     56  CG1       31.9490   37.4360   45.7950 C.3    28  VAL28       0.0023
     57  CG2       33.9420   38.6830   44.9160 C.3    28  VAL28       0.0023
     58  N         33.6530   40.3850   48.9370 N.am   29  SER29      -0.1950
     59  CA        34.6540   40.9680   49.8090 C.3    29  SER29       0.1924
     60  C         35.6150   39.8700   50.2630 C.2    29  SER29       0.2314
     61  O         36.8360   40.0430   50.2490 O.2    29  SER29      -0.2863
     62  CB        33.9660   41.6100   51.0110 C.3    29  SER29       0.2116
     63  OG        34.8910   42.3410   51.8020 O.3    29  SER29      -0.2180
     64  N         36.2540   35.5020   46.4960 N.3    34  LYS34      -0.1231
     65  CA        36.7210   36.4200   45.4790 C.3    34  LYS34       0.1693
     66  C         37.5380   35.6110   44.4800 C.2    34  LYS34       0.2591
     67  O         37.3980   35.7830   43.2720 O.2    34  LYS34      -0.2718
     68  CB        37.5910   37.5050   46.1130 C.3    34  LYS34       0.0285
     69  CG        38.1800   38.4920   45.1290 C.3    34  LYS34       0.0035
     70  CD        39.1040   39.4910   45.8050 C.3    34  LYS34       0.0206
     71  CE        38.3480   40.4440   46.7120 C.3    34  LYS34       0.1093
     72  NZ        39.2700   41.4980   47.2200 N.3    34  LYS34      -0.1314
     73  N         38.3640   34.7100   45.0030 N.am   35  LYS35      -0.1980
     74  CA        39.2310   33.8620   44.1950 C.3    35  LYS35       0.1596
     75  C         38.4910   32.9600   43.2170 C.2    35  LYS35       0.2287
     76  O         38.8650   32.8780   42.0460 O.2    35  LYS35      -0.2864
     77  CB        40.1150   33.0080   45.0980 C.3    35  LYS35       0.0298
     78  CG        41.1100   32.1300   44.3570 C.3    35  LYS35       0.0038
     79  CD        41.9300   31.2970   45.3300 C.3    35  LYS35       0.0206
     80  CE        42.6750   32.1750   46.3290 C.3    35  LYS35       0.1093
     81  NZ        43.6530   31.4050   47.1480 N.3    35  LYS35      -0.1314
     82  N         35.5160   33.3170   42.1210 N.3    37  TYR37      -0.1227
     83  CA        34.8490   34.1810   41.1550 C.3    37  TYR37       0.1736
     84  C         35.8500   34.6450   40.0980 C.2    37  TYR37       0.2595
     85  O         35.4580   35.1010   39.0290 O.2    37  TYR37      -0.2718
     86  CB        34.2650   35.4130   41.8500 C.3    37  TYR37       0.0548
     87  CG        32.7840   35.3440   42.1630 C.ar   37  TYR37      -0.0200
     88  CD1       31.8270   35.5740   41.1740 C.ar   37  TYR37      -0.0009
     89  CD2       32.3380   35.0990   43.4600 C.ar   37  TYR37      -0.0009
     90  CE1       30.4620   35.5700   41.4720 C.ar   37  TYR37       0.0417
     91  CE2       30.9780   35.0900   43.7690 C.ar   37  TYR37       0.0417
     92  CZ        30.0470   35.3270   42.7710 C.ar   37  TYR37       0.1957
     93  OH        28.7050   35.3180   43.0800 O.3    37  TYR37      -0.2866
     94  N         37.1380   34.5840   40.4220 N.am   38  ALA38      -0.1980
     95  CA        38.1830   35.0140   39.4990 C.3    38  ALA38       0.1597
     96  C         38.3690   34.0280   38.3570 C.2    38  ALA38       0.2287
     97  O         38.4330   34.4100   37.1880 O.2    38  ALA38      -0.2864
     98  CB        39.4920   35.2130   40.2380 C.3    38  ALA38       0.0319
     99  N         35.0010   33.5050   36.1340 N.3    41  THR41      -0.1203
    100  CA        34.5870   34.5720   35.2250 C.3    41  THR41       0.1994
    101  C         35.6420   34.7580   34.1280 C.2    41  THR41       0.2617
    102  O         35.3720   35.3570   33.0790 O.2    41  THR41      -0.2717
    103  CB        34.3470   35.9120   35.9640 C.3    41  THR41       0.1784
    104  OG1       33.3960   35.7230   37.0170 O.3    41  THR41      -0.2211
    105  CG2       33.7900   36.9490   35.0070 C.3    41  THR41       0.0376
    106  N         36.8310   34.2040   34.3610 N.am   42  LEU42      -0.1979
    107  CA        37.9330   34.2970   33.4110 C.3    42  LEU42       0.1596
    108  C         37.7700   33.2860   32.2930 C.2    42  LEU42       0.2287
    109  O         38.1800   33.5330   31.1640 O.2    42  LEU42      -0.2864
    110  CB        39.2680   34.0490   34.1070 C.3    42  LEU42       0.0297
    111  CG        40.4600   34.6070   33.3330 C.3    42  LEU42       0.0022
    112  CD1       40.3770   36.1350   33.3780 C.3    42  LEU42       0.0001
    113  CD2       41.7790   34.1100   33.9230 C.3    42  LEU42       0.0001
    114  N         34.8520   34.4800   29.6960 N.3    45  ALA45      -0.1245
    115  CA        35.3220   35.6470   28.9630 C.3    45  ALA45       0.1562
    116  C         36.1570   35.2260   27.7680 C.2    45  ALA45       0.2260
    117  O         36.0190   35.7840   26.6800 O.2    45  ALA45      -0.2867
    118  CB        36.1400   36.5350   29.8770 C.3    45  ALA45       0.0290
@<TRIPOS>BOND
     1   117   116    2
     2   116   115    1
     3   115   114    1
     4   115   118    1
     5     6     5    1
     6    15    13    1
     7     5     7    1
     8     5     2    1
     9    14    13    1
    10    13    12    1
    11    12     9    1
    12     1     2    1
    13   109   108    2
    14     2     3    1
    15     8     9    1
    16     8     3   am
    17     9    10    1
    18     3     4    2
    19   108   107    1
    20   102   101    2
    21    10    11    2
    22    34    32    1
    23   111   112    1
    24   111   113    1
    25   111   110    1
    26   107   110    1
    27   107   106    1
    28   101   106   am
    29   101   100    1
    30    32    33    1
    31    32    31    1
    32    31    28    1
    33    25    23   ar
    34    25    26   ar
    35   105   103    1
    36   100   103    1
    37   100    99    1
    38    23    21   ar
    39    26    24   ar
    40    16    17    1
    41   103   104    1
    42    21    20    1
    43    21    22   ar
    44    27    28    1
    45    27    18   am
    46    24    22   ar
    47    28    29    1
    48    20    17    1
    49    17    18    1
    50    18    19    2
    51    29    30    2
    52    97    96    2
    53    96    95    1
    54    85    84    2
    55    95    98    1
    56    95    94    1
    57    84    94   am
    58    84    83    1
    59    45    46    1
    60    45    44    1
    61    35    36    1
    62    83    86    1
    63    83    82    1
    64    88    90   ar
    65    88    87   ar
    66    43    44    1
    67    43    40    1
    68    90    92   ar
    69    36    37    1
    70    39    40    1
    71    39    37   am
    72    86    87    1
    73    76    75    2
    74    40    41    1
    75    37    38    2
    76    87    89   ar
    77    92    93    1
    78    92    91   ar
    79    75    74    1
    80    67    66    2
    81    89    91   ar
    82    41    42    2
    83    41    47   am
    84    74    73    1
    85    74    77    1
    86    47    48    1
    87    78    77    1
    88    78    79    1
    89    66    73   am
    90    66    65    1
    91    57    55    1
    92    69    70    1
    93    69    68    1
    94    79    80    1
    95    65    68    1
    96    65    64    1
    97    48    49    1
    98    56    55    1
    99    70    71    1
   100    51    49   am
   101    51    52    1
   102    55    52    1
   103    80    81    1
   104    49    50    2
   105    71    72    1
   106    52    53    1
   107    54    53    2
   108    53    58   am
   109    58    59    1
   110    59    60    1
   111    59    62    1
   112    61    60    2
   113    62    63    1
