@<TRIPOS>MOLECULE
tmp/1bm2A00.pdb
 141 136 0 0 0
SMALL
GASTEIGER

@<TRIPOS>ATOM
      1  N         26.4340   22.1020   26.3050 N.3    13  ARG13      -0.1245
      2  CA        27.3590   21.4360   25.4000 C.3    13  ARG13       0.1563
      3  C         27.5450   19.9800   25.8030 C.2    13  ARG13       0.2260
      4  O         27.4400   19.0730   24.9730 O.2    13  ARG13      -0.2867
      5  CB        28.6890   22.1860   25.4370 C.3    13  ARG13       0.0307
      6  CG        29.8290   21.5740   24.6440 C.3    13  ARG13       0.0489
      7  CD        30.9700   22.5830   24.5610 C.3    13  ARG13       0.2205
      8  NE        32.1850   22.0210   23.9770 N.pl3  13  ARG13      -0.0865
      9  CZ        32.9520   22.6360   23.0770 C.cat  13  ARG13       0.5346
     10  NH1       32.6350   23.8430   22.6230 N.pl3  13  ARG13       0.1354
     11  NH2       34.0850   22.0690   22.6870 N.pl3  13  ARG13       0.1354
     12  N         22.0640   23.7940   18.7660 N.3    32  ARG32      -0.1245
     13  CA        21.7300   24.1960   20.1210 C.3    32  ARG32       0.1563
     14  C         22.0600   25.6560   20.2870 C.2    32  ARG32       0.2260
     15  O         22.8720   26.2080   19.5440 O.2    32  ARG32      -0.2867
     16  CB        22.5510   23.3800   21.1270 C.3    32  ARG32       0.0307
     17  CG        24.0640   23.4790   20.9460 C.3    32  ARG32       0.0489
     18  CD        24.7760   22.4080   21.7610 C.3    32  ARG32       0.2205
     19  NE        26.1990   22.3420   21.4460 N.pl3  32  ARG32      -0.0865
     20  CZ        27.1050   23.2190   21.8620 C.cat  32  ARG32       0.5346
     21  NH1       26.7460   24.2360   22.6310 N.pl3  32  ARG32       0.1354
     22  NH2       28.3670   23.1110   21.4660 N.pl3  32  ARG32       0.1354
     23  N         23.9850   28.3730   21.8930 N.3    34  SER34      -0.1202
     24  CA        25.3020   28.4070   22.5160 C.3    34  SER34       0.2020
     25  C         25.3950   28.7890   23.9830 C.2    34  SER34       0.2619
     26  O         24.6090   29.5960   24.4840 O.2    34  SER34      -0.2717
     27  CB        26.2220   29.3230   21.7000 C.3    34  SER34       0.2103
     28  OG        27.5370   29.3970   22.2430 O.3    34  SER34      -0.2182
     29  N         26.3770   28.2120   24.6680 N.am   35  GLU35      -0.1965
     30  CA        26.5790   28.5540   26.0640 C.3    35  GLU35       0.1733
     31  C         27.7420   29.5260   26.2040 C.2    35  GLU35       0.2617
     32  O         27.6320   30.4990   26.9380 O.2    35  GLU35      -0.2715
     33  CB        26.6950   27.3270   26.9880 C.3    35  GLU35       0.0429
     34  CG        27.8080   26.3330   26.7110 C.3    35  GLU35       0.1163
     35  CD        28.0060   25.3440   27.8590 C.2    35  GLU35       0.3649
     36  OE1       28.7500   25.6910   28.7980 O.co2  35  GLU35      -0.2457
     37  OE2       27.4350   24.2330   27.8260 O.co2  35  GLU35      -0.2457
     38  N         28.8220   29.3260   25.4530 N.am   36  SER36      -0.1950
     39  CA        29.9410   30.2580   25.5420 C.3    36  SER36       0.1924
     40  C         29.4550   31.6380   25.0720 C.2    36  SER36       0.2314
     41  O         29.9010   32.6720   25.5790 O.2    36  SER36      -0.2863
     42  CB        31.1190   29.8120   24.6620 C.3    36  SER36       0.2116
     43  OG        30.8150   29.9410   23.2790 O.3    36  SER36      -0.2180
     44  N         25.1740   26.9060   18.0780 N.3    42  SER42      -0.1217
     45  CA        26.2710   25.9780   17.9110 C.3    42  SER42       0.1889
     46  C         25.7460   24.7160   17.2800 C.2    42  SER42       0.2288
     47  O         24.5920   24.3410   17.5040 O.2    42  SER42      -0.2866
     48  CB        26.9210   25.6630   19.2540 C.3    42  SER42       0.2089
     49  OG        27.5600   26.8080   19.7720 O.3    42  SER42      -0.2183
     50  N         31.9280   16.6010   17.5100 N.3    52  GLN52      -0.1231
     51  CA        32.5870   17.8480   17.1770 C.3    52  GLN52       0.1698
     52  C         31.6020   19.0040   17.2860 C.2    52  GLN52       0.2592
     53  O         30.4050   18.8310   17.0730 O.2    52  GLN52      -0.2718
     54  CB        33.1990   17.7700   15.7810 C.3    52  GLN52       0.0381
     55  CG        34.3030   16.7300   15.6450 C.3    52  GLN52       0.0905
     56  CD        34.9810   16.7920   14.2930 C.2    52  GLN52       0.2608
     57  OE1       34.6900   17.6620   13.4880 O.2    52  GLN52      -0.2717
     58  NE2       35.8950   15.8750   14.0460 N.am   52  GLN52      -0.0878
     59  N         32.1050   20.1710   17.6640 N.am   53  HIS53      -0.1962
     60  CA        31.2670   21.3490   17.8210 C.3    53  HIS53       0.1787
     61  C         31.7050   22.4500   16.8580 C.2    53  HIS53       0.2620
     62  O         32.8950   22.7340   16.7320 O.2    53  HIS53      -0.2715
     63  CB        31.3360   21.8650   19.2640 C.3    53  HIS53       0.0785
     64  CG        30.9230   20.8480   20.2820 C.ar   53  HIS53       0.0821
     65  ND1       29.6070   20.5350   20.5330 N.ar   53  HIS53      -0.2267
     66  CD2       31.6600   20.0180   21.0620 C.ar   53  HIS53       0.1154
     67  CE1       29.5470   19.5510   21.4140 C.ar   53  HIS53       0.1986
     68  NE2       30.7820   19.2230   21.7490 N.ar   53  HIS53      -0.2212
     69  N         30.7340   23.0770   16.2050 N.am   54  PHE54      -0.1960
     70  CA        30.9970   24.1410   15.2580 C.3    54  PHE54       0.1771
     71  C         30.2110   25.3370   15.7260 C.2    54  PHE54       0.2619
     72  O         29.0550   25.2140   16.1100 O.2    54  PHE54      -0.2715
     73  CB        30.5150   23.7390   13.8600 C.3    54  PHE54       0.0574
     74  CG        31.2210   22.5450   13.3020 C.ar   54  PHE54      -0.0200
     75  CD1       30.8230   21.2620   13.6470 C.ar   54  PHE54      -0.0042
     76  CD2       32.2920   22.7050   12.4330 C.ar   54  PHE54      -0.0042
     77  CE1       31.4800   20.1520   13.1300 C.ar   54  PHE54      -0.0003
     78  CE2       32.9540   21.6070   11.9100 C.ar   54  PHE54      -0.0003
     79  CZ        32.5500   20.3270   12.2590 C.ar   54  PHE54      -0.0000
     80  N         30.8660   26.4870   15.7700 N.am   55  LYS55      -0.1977
     81  CA        30.2230   27.7150   16.1790 C.3    55  LYS55       0.1596
     82  C         29.5150   28.3410   14.9850 C.2    55  LYS55       0.2287
     83  O         30.1290   28.4850   13.9290 O.2    55  LYS55      -0.2864
     84  CB        31.2690   28.7180   16.6950 C.3    55  LYS55       0.0298
     85  CG        30.6490   29.9840   17.2670 C.3    55  LYS55       0.0038
     86  CD        31.6910   31.0750   17.5010 C.3    55  LYS55       0.0206
     87  CE        31.0300   32.3510   18.0370 C.3    55  LYS55       0.1093
     88  NZ        31.9800   33.4830   18.2510 N.3    55  LYS55      -0.1314
     89  N         28.6930   31.2720   13.1260 N.3    57  LEU57      -0.1245
     90  CA        29.0780   32.6600   13.0810 C.3    57  LEU57       0.1561
     91  C         28.0280   33.5140   12.3730 C.2    57  LEU57       0.2260
     92  O         27.1880   33.0040   11.6270 O.2    57  LEU57      -0.2867
     93  CB        30.4360   32.7970   12.3860 C.3    57  LEU57       0.0270
     94  CG        31.5630   31.9450   12.9860 C.3    57  LEU57       0.0019
     95  CD1       32.7650   31.8810   12.0610 C.3    57  LEU57       0.0001
     96  CD2       31.9670   32.5260   14.3270 C.3    57  LEU57       0.0001
     97  N         29.7790   29.0660    8.8430 N.3    66  LEU66      -0.1231
     98  CA        30.7090   28.2900    9.6380 C.3    66  LEU66       0.1693
     99  C         32.1060   28.5630    9.1230 C.2    66  LEU66       0.2592
    100  O         33.0540   28.7020    9.9040 O.2    66  LEU66      -0.2718
    101  CB        30.4040   26.7960    9.5170 C.3    66  LEU66       0.0284
    102  CG        29.0650   26.3490   10.1000 C.3    66  LEU66       0.0019
    103  CD1       28.8490   24.8920    9.7890 C.3    66  LEU66       0.0001
    104  CD2       29.0300   26.6000   11.5980 C.3    66  LEU66       0.0001
    105  N         32.2220   28.6580    7.7970 N.am   67  TRP67      -0.1976
    106  CA        33.5050   28.8900    7.1520 C.3    67  TRP67       0.1640
    107  C         33.4980   30.1150    6.2320 C.2    67  TRP67       0.2290
    108  O         33.5770   31.2540    6.6960 O.2    67  TRP67      -0.2864
    109  CB        33.9090   27.6340    6.3820 C.3    67  TRP67       0.0576
    110  CG        33.8620   26.3780    7.2120 C.ar   67  TRP67       0.0006
    111  CD1       32.8450   25.4660    7.2630 C.ar   67  TRP67       0.0946
    112  CD2       34.8900   25.8770    8.0720 C.ar   67  TRP67       0.0152
    113  NE1       33.1810   24.4250    8.0930 N.ar   67  TRP67      -0.2442
    114  CE2       34.4310   24.6510    8.6050 C.ar   67  TRP67       0.0810
    115  CE3       36.1620   26.3400    8.4410 C.ar   67  TRP67       0.0012
    116  CZ2       35.1920   23.8810    9.4810 C.ar   67  TRP67       0.0191
    117  CZ3       36.9240   25.5710    9.3140 C.ar   67  TRP67       0.0001
    118  CH2       36.4360   24.3550    9.8240 C.ar   67  TRP67       0.0015
    119  N         32.6130   20.2070    7.5070 N.3    87  SER87      -0.1217
    120  CA        33.9520   20.5260    7.9590 C.3    87  SER87       0.1889
    121  C         34.9830   20.5870    6.8430 C.2    87  SER87       0.2288
    122  O         34.9290   19.8080    5.8850 O.2    87  SER87      -0.2866
    123  CB        34.4110   19.4900    8.9840 C.3    87  SER87       0.2089
    124  OG        35.7520   19.7400    9.3550 O.3    87  SER87      -0.2183
    125  N         38.1250   20.0180    7.6010 N.3    89  ASN89      -0.1225
    126  CA        39.1650   19.1010    8.0770 C.3    89  ASN89       0.1785
    127  C         38.9260   17.6710    7.6560 C.2    89  ASN89       0.2597
    128  O         39.8440   16.9950    7.2080 O.2    89  ASN89      -0.2718
    129  CB        39.3070   19.1950    9.5970 C.3    89  ASN89       0.1169
    130  CG        39.7770   20.5600   10.0400 C.2    89  ASN89       0.2627
    131  OD1       39.5100   21.0070   11.1550 O.2    89  ASN89      -0.2716
    132  ND2       40.4610   21.2470    9.1480 N.am   89  ASN89      -0.0877
    133  N         37.7090   17.1910    7.8790 N.am   90  GLN90      -0.1979
    134  CA        37.3250   15.8430    7.4880 C.3    90  GLN90       0.1601
    135  C         36.0530   15.9790    6.6640 C.2    90  GLN90       0.2287
    136  O         35.4330   17.0450    6.6280 O.2    90  GLN90      -0.2864
    137  CB        37.0570   14.9400    8.7030 C.3    90  GLN90       0.0394
    138  CG        38.2850   14.5340    9.5190 C.3    90  GLN90       0.0908
    139  CD        38.6630   15.5670   10.5600 C.2    90  GLN90       0.2608
    140  OE1       37.7990   16.2210   11.1370 O.2    90  GLN90      -0.2717
    141  NE2       39.9510   15.7310   10.7930 N.am   90  GLN90      -0.0878
@<TRIPOS>BOND
     1   122   121    2
     2   107   108    2
     3   107   106    1
     4   109   106    1
     5   109   110    1
     6   136   135    2
     7   135   134    1
     8   121   120    1
     9   106   105    1
    10   128   127    2
    11   110   111   ar
    12   110   112   ar
    13   111   113   ar
    14   134   133    1
    15   134   137    1
    16   119   120    1
    17   125   126    1
    18   127   133   am
    19   127   126    1
    20   105    99   am
    21   120   123    1
    22   112   115   ar
    23   112   114   ar
    24   126   129    1
    25   113   114   ar
    26   115   117   ar
    27   114   116   ar
    28   137   138    1
    29    97    98    1
    30   123   124    1
    31    99    98    1
    32    99   100    2
    33   132   130   am
    34   117   118   ar
    35   116   118   ar
    36   101    98    1
    37   101   102    1
    38   138   139    1
    39   129   130    1
    40   103   102    1
    41   130   131    2
    42   102   104    1
    43   139   141   am
    44   139   140    2
    45    92    91    2
    46    78    79   ar
    47    78    76   ar
    48    95    94    1
    49    79    77   ar
    50    91    90    1
    51    93    94    1
    52    93    90    1
    53    76    74   ar
    54    94    96    1
    55    90    89    1
    56    77    75   ar
    57    74    75   ar
    58    74    73    1
    59    57    56    2
    60    73    70    1
    61    83    82    2
    62    58    56   am
    63    56    55    1
    64    82    81    1
    65    70    71    1
    66    70    69    1
    67    55    54    1
    68    71    80   am
    69    71    72    2
    70    80    81    1
    71    54    51    1
    72    81    84    1
    73    69    61   am
    74    84    85    1
    75    62    61    2
    76    61    60    1
    77    53    52    2
    78    51    52    1
    79    51    50    1
    80    85    86    1
    81    46    47    2
    82    46    45    1
    83    52    59   am
    84    86    87    1
    85    59    60    1
    86    60    63    1
    87    45    44    1
    88    45    48    1
    89    87    88    1
    90    12    13    1
    91    48    49    1
    92    63    64    1
    93    15    14    2
    94    13    14    1
    95    13    16    1
    96    64    65   ar
    97    64    66   ar
    98    65    67   ar
    99    17    16    1
   100    17    18    1
   101    66    68   ar
   102    67    68   ar
   103    19    18    1
   104    19    20    2
   105    22    20    1
   106    27    28    1
   107    27    24    1
   108    20    21    1
   109    23    24    1
   110    24    25    1
   111    10     9    1
   112    11     9    1
   113     9     8    2
   114    43    42    1
   115     8     7    1
   116    25    26    2
   117    25    29   am
   118     7     6    1
   119     6     5    1
   120    42    39    1
   121    29    30    1
   122     4     3    2
   123    40    39    1
   124    40    41    2
   125     2     5    1
   126     2     3    1
   127     2     1    1
   128    38    39    1
   129    38    31   am
   130    30    31    1
   131    30    33    1
   132    31    32    2
   133    34    33    1
   134    34    35    1
   135    37    35   ar
   136    35    36   ar
