@<TRIPOS>MOLECULE
tmp/1bm6A00.pdb
 95 94 0 0 0
SMALL
GASTEIGER

@<TRIPOS>ATOM
      1  N         -3.4880    5.8750    5.5060 N.3    80  ASN80      -0.1225
      2  CA        -2.5470    5.3810    4.4610 C.3    80  ASN80       0.1785
      3  C         -3.2300    4.3360    3.5710 C.2    80  ASN80       0.2597
      4  O         -2.9450    4.2380    2.3960 O.2    80  ASN80      -0.2718
      5  CB        -1.3350    4.7520    5.1470 C.3    80  ASN80       0.1169
      6  CG        -0.4890    5.8490    5.7950 C.2    80  ASN80       0.2627
      7  OD1       -0.2940    6.9010    5.2210 O.2    80  ASN80      -0.2716
      8  ND2        0.0270    5.6460    6.9760 N.am   80  ASN80      -0.0877
      9  N         -4.1170    3.5470    4.1190 N.am   81  VAL81      -0.1966
     10  CA        -4.7990    2.5050    3.2910 C.3    81  VAL81       0.1727
     11  C         -5.4720    3.1540    2.0770 C.2    81  VAL81       0.2616
     12  O         -6.6450    3.4700    2.0940 O.2    81  VAL81      -0.2715
     13  CB        -5.8500    1.7900    4.1420 C.3    81  VAL81       0.0290
     14  CG1       -6.2220    0.4600    3.4840 C.3    81  VAL81       0.0023
     15  CG2       -5.2810    1.5250    5.5380 C.3    81  VAL81       0.0023
     16  N         -4.7250    3.3610    1.0270 N.am   82  LEU82      -0.1963
     17  CA        -5.2970    4.0000   -0.2010 C.3    82  LEU82       0.1728
     18  C         -6.2030    3.0240   -0.9860 C.2    82  LEU82       0.2616
     19  O         -7.2810    3.3870   -1.4040 O.2    82  LEU82      -0.2715
     20  CB        -4.1440    4.4520   -1.0980 C.3    82  LEU82       0.0311
     21  CG        -4.2740    5.9500   -1.3740 C.3    82  LEU82       0.0022
     22  CD1       -3.6670    6.7400   -0.2140 C.3    82  LEU82       0.0001
     23  CD2       -3.5290    6.2910   -2.6640 C.3    82  LEU82       0.0001
     24  N         -5.7810    1.8000   -1.2120 N.am   83  ALA83      -0.1963
     25  CA        -6.6620    0.8670   -1.9860 C.3    83  ALA83       0.1728
     26  C         -6.1540   -0.5810   -1.9200 C.2    83  ALA83       0.2616
     27  O         -5.1500   -0.8720   -1.3140 O.2    83  ALA83      -0.2715
     28  CB        -6.7000    1.3230   -3.4420 C.3    83  ALA83       0.0334
     29  N         -6.8340   -1.5080   -2.5530 N.am   84  HIS84      -0.1973
     30  CA        -6.3300   -2.9170   -2.5070 C.3    84  HIS84       0.1656
     31  C         -7.2550   -3.8610   -3.2720 C.2    84  HIS84       0.2291
     32  O         -8.3610   -3.5120   -3.6320 O.2    84  HIS84      -0.2864
     33  CB        -6.2010   -3.3850   -1.0460 C.3    84  HIS84       0.0771
     34  CG        -7.5190   -3.2740   -0.3110 C.ar   84  HIS84       0.0820
     35  ND1       -7.6660   -2.4800    0.8200 N.ar   84  HIS84      -0.2267
     36  CD2       -8.7380   -3.8840   -0.4980 C.ar   84  HIS84       0.1154
     37  CE1       -8.9290   -2.6310    1.2680 C.ar   84  HIS84       0.1986
     38  NE2       -9.6270   -3.4810    0.5000 N.ar   84  HIS84      -0.2212
     39  N         -2.7300    3.8240   -7.9310 N.3   116  VAL116     -0.1245
     40  CA        -3.3460    2.8070   -7.0510 C.3   116  VAL116      0.1561
     41  C         -4.2010    1.8760   -7.9000 C.2   116  VAL116      0.2260
     42  O         -4.6700    0.8570   -7.4340 O.2   116  VAL116     -0.2867
     43  CB        -4.2230    3.5020   -6.0160 C.3   116  VAL116      0.0252
     44  CG1       -4.3180    2.6220   -4.7770 C.3   116  VAL116      0.0019
     45  CG2       -3.6050    4.8500   -5.6360 C.3   116  VAL116      0.0019
     46  N         -2.0110   -0.5370   -8.8810 N.3   119  HIS119     -0.1241
     47  CA        -1.6110   -1.0690   -7.5600 C.3   119  HIS119      0.1621
     48  C         -2.5530   -2.2250   -7.2130 C.2   119  HIS119      0.2264
     49  O         -2.1210   -3.2950   -6.8340 O.2   119  HIS119     -0.2867
     50  CB        -1.7040    0.0260   -6.5000 C.3   119  HIS119      0.0745
     51  CG        -0.9450   -0.4130   -5.2790 C.ar  119  HIS119      0.0817
     52  ND1        0.3690   -0.0420   -5.0550 N.ar  119  HIS119     -0.2268
     53  CD2       -1.2990   -1.2070   -4.2190 C.ar  119  HIS119      0.1154
     54  CE1        0.7580   -0.6100   -3.8970 C.ar  119  HIS119      0.1986
     55  NE2       -0.2220   -1.3320   -3.3450 N.ar  119  HIS119     -0.2212
     56  N         -2.1710   -5.8970   -7.8730 N.3   123  HIS123     -0.1241
     57  CA        -2.2270   -6.7360   -6.6470 C.3   123  HIS123      0.1621
     58  C         -2.7890   -8.1230   -6.9590 C.2   123  HIS123      0.2264
     59  O         -2.2470   -9.1300   -6.5490 O.2   123  HIS123     -0.2867
     60  CB        -3.1520   -6.0610   -5.6510 C.3   123  HIS123      0.0745
     61  CG        -2.3850   -5.6960   -4.4100 C.ar  123  HIS123      0.0817
     62  ND1       -2.8950   -5.8930   -3.1360 N.ar  123  HIS123     -0.2268
     63  CD2       -1.1450   -5.1310   -4.2330 C.ar  123  HIS123      0.1154
     64  CE1       -1.9730   -5.4520   -2.2580 C.ar  123  HIS123      0.1986
     65  NE2       -0.8870   -4.9780   -2.8740 N.ar  123  HIS123     -0.2212
     66  N          4.7260   -7.2570   -4.2880 N.3   129  HIS129     -0.1241
     67  CA         5.3850   -5.9400   -4.0600 C.3   129  HIS129      0.1621
     68  C          6.8280   -5.9880   -4.5730 C.2   129  HIS129      0.2264
     69  O          7.7090   -6.5210   -3.9290 O.2   129  HIS129     -0.2867
     70  CB         5.3800   -5.6330   -2.5600 C.3   129  HIS129      0.0745
     71  CG         3.9870   -5.2590   -2.1300 C.ar  129  HIS129      0.0817
     72  ND1        3.0750   -6.2000   -1.6790 N.ar  129  HIS129     -0.2268
     73  CD2        3.3350   -4.0510   -2.0790 C.ar  129  HIS129      0.1154
     74  CE1        1.9340   -5.5500   -1.3800 C.ar  129  HIS129      0.1986
     75  NE2        2.0390   -4.2370   -1.6050 N.ar  129  HIS129     -0.2212
     76  N          4.0820   -0.0400   -7.0690 N.3   137  MET137     -0.1230
     77  CA         3.5770   -0.4360   -5.7210 C.3   137  MET137      0.1702
     78  C          4.0720    0.5110   -4.6170 C.2   137  MET137      0.2592
     79  O          3.6390    0.4150   -3.4860 O.2   137  MET137     -0.2718
     80  CB         3.9710   -1.8840   -5.4250 C.3   137  MET137      0.0401
     81  CG         2.7240   -2.6720   -5.0280 C.3   137  MET137      0.0596
     82  SD         2.7340   -4.2790   -5.8600 S.3   137  MET137     -0.1393
     83  CE         1.4020   -3.9360   -7.0350 C.3   137  MET137      0.0692
     84  N          4.9550    1.4240   -4.9130 N.am  138  TYR138     -0.1976
     85  CA         5.4210    2.3490   -3.8310 C.3   138  TYR138      0.1639
     86  C          5.5330    3.8280   -4.2840 C.2   138  TYR138      0.2290
     87  O          6.1480    4.6070   -3.5830 O.2   138  TYR138     -0.2864
     88  CB         6.7860    1.8810   -3.3240 C.3   138  TYR138      0.0560
     89  CG         6.9450    2.2750   -1.8750 C.ar  138  TYR138     -0.0198
     90  CD1        6.0480    1.7930   -0.9160 C.ar  138  TYR138     -0.0009
     91  CD2        7.9910    3.1250   -1.4930 C.ar  138  TYR138     -0.0009
     92  CE1        6.1960    2.1600    0.4270 C.ar  138  TYR138      0.0417
     93  CE2        8.1390    3.4910   -0.1510 C.ar  138  TYR138      0.0417
     94  CZ         7.2410    3.0080    0.8100 C.ar  138  TYR138      0.1957
     95  OH         7.3870    3.3710    2.1330 O.3   138  TYR138     -0.2866
@<TRIPOS>BOND
     1    46    47    1
     2    39    40    1
     3    41    42    2
     4    41    40    1
     5    56    57    1
     6    47    48    1
     7    47    50    1
     8    48    49    2
     9    76    77    1
    10    40    43    1
    11    83    82    1
    12    58    57    1
    13    58    59    2
    14    57    60    1
    15    50    51    1
    16    43    45    1
    17    43    44    1
    18    82    81    1
    19    77    80    1
    20    77    78    1
    21    60    61    1
    22    80    81    1
    23    51    52   ar
    24    51    53   ar
    25    52    54   ar
    26    84    78   am
    27    84    85    1
    28    78    79    2
    29    68    67    1
    30    68    69    2
    31    61    63   ar
    32    61    62   ar
    33    66    67    1
    34    86    85    1
    35    86    87    2
    36    63    65   ar
    37    53    55   ar
    38    67    70    1
    39    54    55   ar
    40    85    88    1
    41    32    31    2
    42    28    25    1
    43    88    89    1
    44    31    30    1
    45    62    64   ar
    46    65    64   ar
    47    23    21    1
    48    70    71    1
    49    29    30    1
    50    29    26   am
    51    30    33    1
    52    71    73   ar
    53    71    72   ar
    54    73    75   ar
    55    25    26    1
    56    25    24    1
    57    26    27    2
    58    89    91   ar
    59    89    90   ar
    60    72    74   ar
    61    75    74   ar
    62    91    93   ar
    63    19    18    2
    64    21    20    1
    65    21    22    1
    66    24    18   am
    67    20    17    1
    68    33    34    1
    69    18    17    1
    70    90    92   ar
    71    36    34   ar
    72    36    38   ar
    73    34    35   ar
    74    17    16    1
    75    93    94   ar
    76    92    94   ar
    77    38    37   ar
    78    94    95    1
    79    35    37   ar
    80    16    11   am
    81    11    12    2
    82    11    10    1
    83     4     3    2
    84    10     9    1
    85    10    13    1
    86    14    13    1
    87     3     9   am
    88     3     2    1
    89    13    15    1
    90     2     5    1
    91     2     1    1
    92     5     6    1
    93     7     6    2
    94     6     8   am
