@<TRIPOS>MOLECULE
tmp/1bm6A01.pdb
 96 95 0 0 0
SMALL
GASTEIGER

@<TRIPOS>ATOM
      1  N         -3.4880    5.8750    5.5060 N.3    80  ASN80      -0.1225
      2  CA        -2.5470    5.3810    4.4610 C.3    80  ASN80       0.1785
      3  C         -3.2300    4.3360    3.5710 C.2    80  ASN80       0.2597
      4  O         -2.9450    4.2380    2.3960 O.2    80  ASN80      -0.2718
      5  CB        -1.3350    4.7520    5.1470 C.3    80  ASN80       0.1169
      6  CG        -0.4890    5.8490    5.7950 C.2    80  ASN80       0.2627
      7  OD1       -0.2940    6.9010    5.2210 O.2    80  ASN80      -0.2716
      8  ND2        0.0270    5.6460    6.9760 N.am   80  ASN80      -0.0877
      9  N         -4.1170    3.5470    4.1190 N.am   81  VAL81      -0.1966
     10  CA        -4.7990    2.5050    3.2910 C.3    81  VAL81       0.1727
     11  C         -5.4720    3.1540    2.0770 C.2    81  VAL81       0.2616
     12  O         -6.6450    3.4700    2.0940 O.2    81  VAL81      -0.2715
     13  CB        -5.8500    1.7900    4.1420 C.3    81  VAL81       0.0290
     14  CG1       -6.2220    0.4600    3.4840 C.3    81  VAL81       0.0023
     15  CG2       -5.2810    1.5250    5.5380 C.3    81  VAL81       0.0023
     16  N         -4.7250    3.3610    1.0270 N.am   82  LEU82      -0.1963
     17  CA        -5.2970    4.0000   -0.2010 C.3    82  LEU82       0.1728
     18  C         -6.2030    3.0240   -0.9860 C.2    82  LEU82       0.2616
     19  O         -7.2810    3.3870   -1.4040 O.2    82  LEU82      -0.2715
     20  CB        -4.1440    4.4520   -1.0980 C.3    82  LEU82       0.0311
     21  CG        -4.2740    5.9500   -1.3740 C.3    82  LEU82       0.0022
     22  CD1       -3.6670    6.7400   -0.2140 C.3    82  LEU82       0.0001
     23  CD2       -3.5290    6.2910   -2.6640 C.3    82  LEU82       0.0001
     24  N         -5.7810    1.8000   -1.2120 N.am   83  ALA83      -0.1977
     25  CA        -6.6620    0.8670   -1.9860 C.3    83  ALA83       0.1597
     26  C         -6.1540   -0.5810   -1.9200 C.2    83  ALA83       0.2287
     27  O         -5.1500   -0.8720   -1.3140 O.2    83  ALA83      -0.2864
     28  CB        -6.7000    1.3230   -3.4420 C.3    83  ALA83       0.0319
     29  N         -2.3320    5.0670  -10.4930 N.3   115  LEU115     -0.1231
     30  CA        -1.2290    4.5910   -9.6360 C.3   115  LEU115      0.1693
     31  C         -1.7820    3.4860   -8.7500 C.2   115  LEU115      0.2591
     32  O         -1.3780    2.3400   -8.8230 O.2   115  LEU115     -0.2718
     33  CB        -0.7250    5.7420   -8.7780 C.3   115  LEU115      0.0284
     34  CG         0.7120    5.4860   -8.3260 C.3   115  LEU115      0.0019
     35  CD1        1.6370    5.4710   -9.5420 C.3   115  LEU115      0.0001
     36  CD2        1.1430    6.6050   -7.3740 C.3   115  LEU115      0.0001
     37  N         -2.7300    3.8240   -7.9310 N.am  116  VAL116     -0.1980
     38  CA        -3.3460    2.8070   -7.0510 C.3   116  VAL116      0.1595
     39  C         -4.2010    1.8760   -7.9000 C.2   116  VAL116      0.2287
     40  O         -4.6700    0.8570   -7.4340 O.2   116  VAL116     -0.2864
     41  CB        -4.2230    3.5020   -6.0160 C.3   116  VAL116      0.0276
     42  CG1       -4.3180    2.6220   -4.7770 C.3   116  VAL116      0.0022
     43  CG2       -3.6050    4.8500   -5.6360 C.3   116  VAL116      0.0022
     44  N         -2.0110   -0.5370   -8.8810 N.3   119  HIS119     -0.1241
     45  CA        -1.6110   -1.0690   -7.5600 C.3   119  HIS119      0.1621
     46  C         -2.5530   -2.2250   -7.2130 C.2   119  HIS119      0.2264
     47  O         -2.1210   -3.2950   -6.8340 O.2   119  HIS119     -0.2867
     48  CB        -1.7040    0.0260   -6.5000 C.3   119  HIS119      0.0745
     49  CG        -0.9450   -0.4130   -5.2790 C.ar  119  HIS119      0.0817
     50  ND1        0.3690   -0.0420   -5.0550 N.ar  119  HIS119     -0.2268
     51  CD2       -1.2990   -1.2070   -4.2190 C.ar  119  HIS119      0.1154
     52  CE1        0.7580   -0.6100   -3.8970 C.ar  119  HIS119      0.1986
     53  NE2       -0.2220   -1.3320   -3.3450 N.ar  119  HIS119     -0.2212
     54  N          5.2490    0.8090   -9.4420 N.3   136  LEU136     -0.1231
     55  CA         3.9150    1.3670   -9.0680 C.3   136  LEU136      0.1693
     56  C          3.4860    0.9440   -7.6560 C.2   136  LEU136      0.2592
     57  O          2.5650    1.4890   -7.0990 O.2   136  LEU136     -0.2718
     58  CB         2.8920    0.8210  -10.0700 C.3   136  LEU136      0.0284
     59  CG         1.6990    1.7870  -10.2790 C.3   136  LEU136      0.0019
     60  CD1        1.3700    2.5320   -8.9900 C.3   136  LEU136      0.0001
     61  CD2        2.0530    2.8000  -11.3700 C.3   136  LEU136      0.0001
     62  N          4.0820   -0.0400   -7.0690 N.am  137  MET137     -0.1965
     63  CA         3.5770   -0.4360   -5.7210 C.3   137  MET137      0.1736
     64  C          4.0720    0.5110   -4.6170 C.2   137  MET137      0.2616
     65  O          3.6390    0.4150   -3.4860 O.2   137  MET137     -0.2715
     66  CB         3.9710   -1.8840   -5.4250 C.3   137  MET137      0.0427
     67  CG         2.7240   -2.6720   -5.0280 C.3   137  MET137      0.0599
     68  SD         2.7340   -4.2790   -5.8600 S.3   137  MET137     -0.1393
     69  CE         1.4020   -3.9360   -7.0350 C.3   137  MET137      0.0692
     70  N          4.9550    1.4240   -4.9130 N.am  138  TYR138     -0.1960
     71  CA         5.4210    2.3490   -3.8310 C.3   138  TYR138      0.1756
     72  C          5.5330    3.8280   -4.2840 C.2   138  TYR138      0.2461
     73  O          6.1480    4.6070   -3.5830 O.2   138  TYR138     -0.2730
     74  CB         6.7860    1.8810   -3.3240 C.3   138  TYR138      0.0574
     75  CG         6.9450    2.2750   -1.8750 C.ar  138  TYR138     -0.0198
     76  CD1        6.0480    1.7930   -0.9160 C.ar  138  TYR138     -0.0009
     77  CD2        7.9910    3.1250   -1.4930 C.ar  138  TYR138     -0.0009
     78  CE1        6.1960    2.1600    0.4270 C.ar  138  TYR138      0.0417
     79  CE2        8.1390    3.4910   -0.1510 C.ar  138  TYR138      0.0417
     80  CZ         7.2410    3.0080    0.8100 C.ar  138  TYR138      0.1957
     81  OH         7.3870    3.3710    2.1330 O.3   138  TYR138     -0.2866
     82  N          4.9440    4.2070   -5.4020 N.am  139  PRO139     -0.2716
     83  CA         5.0190    5.6150   -5.8330 C.3   139  PRO139      0.1536
     84  C          4.0190    6.4210   -5.0210 C.2   139  PRO139      0.2598
     85  O          4.2580    7.5600   -4.6700 O.2   139  PRO139     -0.2715
     86  CB         4.5790    5.6370   -7.2770 C.3   139  PRO139      0.0310
     87  CG         3.6960    4.4380   -7.3930 C.3   139  PRO139      0.0237
     88  CD         4.1710    3.4200   -6.3740 C.3   139  PRO139      0.0939
     89  N          2.8890    5.8130   -4.7510 N.am  140  LEU140     -0.1978
     90  CA         1.7920    6.4830   -3.9750 C.3   140  LEU140      0.1596
     91  C          2.3340    7.6410   -3.1400 C.2   140  LEU140      0.2287
     92  O          1.9280    8.7740   -3.3020 O.2   140  LEU140     -0.2864
     93  CB         1.1460    5.4530   -3.0560 C.3   140  LEU140      0.0297
     94  CG        -0.3500    5.7360   -2.9430 C.3   140  LEU140      0.0022
     95  CD1       -0.5610    7.1370   -2.3660 C.3   140  LEU140      0.0001
     96  CD2       -0.9890    5.6500   -4.3310 C.3   140  LEU140      0.0001
@<TRIPOS>BOND
     1    61    59    1
     2    29    30    1
     3    59    58    1
     4    59    60    1
     5    58    55    1
     6    30    33    1
     7    30    31    1
     8    35    34    1
     9    54    55    1
    10    55    56    1
    11    44    45    1
    12    32    31    2
    13    33    34    1
    14    31    37   am
    15    34    36    1
    16    37    38    1
    17    39    40    2
    18    39    38    1
    19    56    57    2
    20    56    62   am
    21    45    46    1
    22    45    48    1
    23    87    86    1
    24    87    88    1
    25    86    83    1
    26    46    47    2
    27    62    63    1
    28    38    41    1
    29    69    68    1
    30    48    49    1
    31    88    82    1
    32    41    43    1
    33    41    42    1
    34    68    67    1
    35    83    82    1
    36    83    84    1
    37    63    66    1
    38    63    64    1
    39    66    67    1
    40    82    72   am
    41    49    50   ar
    42    49    51   ar
    43    50    52   ar
    44    84    89   am
    45    84    85    2
    46    70    64   am
    47    70    71    1
    48    89    90    1
    49    64    65    2
    50    96    94    1
    51    72    71    1
    52    72    73    2
    53    51    53   ar
    54    90    91    1
    55    90    93    1
    56    52    53   ar
    57    71    74    1
    58    28    25    1
    59    74    75    1
    60    92    91    2
    61    93    94    1
    62    94    95    1
    63    23    21    1
    64    25    26    1
    65    25    24    1
    66    26    27    2
    67    75    77   ar
    68    75    76   ar
    69    77    79   ar
    70    19    18    2
    71    21    20    1
    72    21    22    1
    73    24    18   am
    74    20    17    1
    75    18    17    1
    76    76    78   ar
    77    17    16    1
    78    79    80   ar
    79    78    80   ar
    80    80    81    1
    81    16    11   am
    82    11    12    2
    83    11    10    1
    84     4     3    2
    85    10     9    1
    86    10    13    1
    87    14    13    1
    88     3     9   am
    89     3     2    1
    90    13    15    1
    91     2     5    1
    92     2     1    1
    93     5     6    1
    94     7     6    2
    95     6     8   am
