@<TRIPOS>MOLECULE
tmp/1bm7A00.pdb
 69 63 0 0 0
SMALL
GASTEIGER

@<TRIPOS>ATOM
      1  N         22.6480   34.9640    2.9030 N.3     6  LYS6       -0.1245
      2  CA        23.6040   36.0330    2.8010 C.3     6  LYS6        0.1561
      3  C         24.2440   36.1430    4.1540 C.2     6  LYS6        0.2260
      4  O         23.5520   36.1580    5.1660 O.2     6  LYS6       -0.2867
      5  CB        22.9480   37.3410    2.4620 C.3     6  LYS6        0.0271
      6  CG        24.0100   38.3700    2.2260 C.3     6  LYS6        0.0035
      7  CD        23.4260   39.6230    1.6690 C.3     6  LYS6        0.0206
      8  CE        24.5200   40.5620    1.2420 C.3     6  LYS6        0.1093
      9  NZ        23.9700   41.3910    0.1240 N.3     6  LYS6       -0.1314
     10  N         27.2870   38.2150    6.4710 N.3     8  LEU8       -0.1245
     11  CA        28.1920   39.3470    6.5870 C.3     8  LEU8        0.1561
     12  C         29.1080   39.2510    7.7850 C.2     8  LEU8        0.2260
     13  O         28.7720   38.6680    8.8200 O.2     8  LEU8       -0.2867
     14  CB        27.4000   40.6510    6.6730 C.3     8  LEU8        0.0270
     15  CG        26.4470   40.8070    5.5110 C.3     8  LEU8        0.0019
     16  CD1       25.4740   41.7240    5.9670 C.3     8  LEU8        0.0001
     17  CD2       27.1180   41.2870    4.2700 C.3     8  LEU8        0.0001
     18  N         14.9750   34.8940    2.0240 N.3    97  THR97      -0.1218
     19  CA        16.3670   35.3400    2.1000 C.3    97  THR97       0.1862
     20  C         16.6870   35.2670    3.5560 C.2    97  THR97       0.2287
     21  O         15.9900   35.8810    4.3760 O.2    97  THR97      -0.2866
     22  CB        16.6180   36.7620    1.6040 C.3    97  THR97       0.1770
     23  OG1       16.4350   36.7910    0.1870 O.3    97  THR97      -0.2211
     24  CG2       18.0490   37.1640    1.8980 C.3    97  THR97       0.0375
     25  N         19.4310   36.0040    6.1810 N.3    99  ALA99      -0.1231
     26  CA        20.6830   36.7470    6.3310 C.3    99  ALA99       0.1694
     27  C         21.2690   36.5910    7.7230 C.2    99  ALA99       0.2592
     28  O         20.5170   36.4420    8.7080 O.2    99  ALA99      -0.2718
     29  CB        20.4770   38.2230    6.0380 C.3    99  ALA99       0.0304
     30  N         22.6040   36.6020    7.8150 N.am  100  ALA100     -0.1966
     31  CA        23.2560   36.5060    9.0990 C.3   100  ALA100      0.1728
     32  C         24.4000   37.5160    9.1440 C.2   100  ALA100      0.2616
     33  O         25.0890   37.7390    8.1460 O.2   100  ALA100     -0.2715
     34  CB        23.7620   35.1010    9.3390 C.3   100  ALA100      0.0334
     35  N         24.5540   38.1620   10.2920 N.am  101  LEU101     -0.1977
     36  CA        25.5990   39.1160   10.5200 C.3   101  LEU101      0.1596
     37  C         26.4120   38.4940   11.6480 C.2   101  LEU101      0.2287
     38  O         25.8820   38.2610   12.7460 O.2   101  LEU101     -0.2864
     39  CB        25.0030   40.4750   10.9260 C.3   101  LEU101      0.0297
     40  CG        25.9830   41.5350   11.4470 C.3   101  LEU101      0.0022
     41  CD1       26.9110   41.9660   10.2920 C.3   101  LEU101      0.0001
     42  CD2       25.2350   42.6880   12.0590 C.3   101  LEU101      0.0001
     43  N         23.4570   37.8500   14.3540 N.3   108  SER108     -0.1202
     44  CA        22.0990   38.3200   14.2100 C.3   108  SER108      0.2020
     45  C         21.6000   37.6670   12.9710 C.2   108  SER108      0.2619
     46  O         22.3550   37.5010   12.0350 O.2   108  SER108     -0.2717
     47  CB        22.0720   39.8230   13.9810 C.3   108  SER108      0.2103
     48  OG        22.4650   40.5110   15.1420 O.3   108  SER108     -0.2182
     49  N         20.3380   37.2930   12.9410 N.am  109  THR109     -0.1938
     50  CA        19.8130   36.6910   11.7510 C.3   109  THR109      0.2028
     51  C         18.4420   37.2540   11.5050 C.2   109  THR109      0.2642
     52  O         17.7110   37.5840   12.4470 O.2   109  THR109     -0.2714
     53  CB        19.7800   35.1400   11.8300 C.3   109  THR109      0.1808
     54  OG1       19.3620   34.6260   10.5650 O.3   109  THR109     -0.2208
     55  CG2       18.8100   34.6590   12.8860 C.3   109  THR109      0.0379
     56  N         18.1490   37.4720   10.2320 N.am  110  THR110     -0.1950
     57  CA        16.8470   37.9660    9.8440 C.3   110  THR110      0.1897
     58  C         16.3880   37.2270    8.6060 C.2   110  THR110      0.2313
     59  O         17.1980   36.6110    7.9300 O.2   110  THR110     -0.2863
     60  CB        16.8260   39.4900    9.5930 C.3   110  THR110      0.1794
     61  OG1       15.4590   39.9290    9.6420 O.3   110  THR110     -0.2208
     62  CG2       17.4460   39.8630    8.2480 C.3   110  THR110      0.0378
     63  N         13.8710   37.6470    5.1110 N.3   112  VAL112     -0.1245
     64  CA        13.0470   38.5250    4.2790 C.3   112  VAL112      0.1561
     65  C         12.2640   37.5310    3.4530 C.2   112  VAL112      0.2260
     66  O         12.8140   36.7000    2.7430 O.2   112  VAL112     -0.2867
     67  CB        13.8310   39.4150    3.3190 C.3   112  VAL112      0.0252
     68  CG1       12.8760   40.1520    2.4320 C.3   112  VAL112      0.0019
     69  CG2       14.6760   40.4000    4.0850 C.3   112  VAL112      0.0019
@<TRIPOS>BOND
     1     9     8    1
     2    23    22    1
     3     8     7    1
     4    22    24    1
     5    22    19    1
     6     7     6    1
     7    18    19    1
     8    19    20    1
     9     6     5    1
    10    68    67    1
    11     5     2    1
    12    66    65    2
    13     2     1    1
    14     2     3    1
    15    67    69    1
    16    67    64    1
    17    65    64    1
    18    20    21    2
    19     3     4    2
    20    17    15    1
    21    64    63    1
    22    15    16    1
    23    15    14    1
    24    29    26    1
    25    25    26    1
    26    26    27    1
    27    10    11    1
    28    11    14    1
    29    11    12    1
    30    27    30   am
    31    27    28    2
    32    12    13    2
    33    30    31    1
    34    59    58    2
    35    33    32    2
    36    62    60    1
    37    58    57    1
    38    31    32    1
    39    31    34    1
    40    32    35   am
    41    60    61    1
    42    60    57    1
    43    57    56    1
    44    56    51   am
    45    41    40    1
    46    35    36    1
    47    36    39    1
    48    36    37    1
    49    54    53    1
    50    39    40    1
    51    40    42    1
    52    51    50    1
    53    51    52    2
    54    37    38    2
    55    50    53    1
    56    50    49    1
    57    53    55    1
    58    46    45    2
    59    49    45   am
    60    45    44    1
    61    47    44    1
    62    47    48    1
    63    44    43    1
