@<TRIPOS>MOLECULE
tmp/1bmaA00.pdb
 194 192 0 0 0
SMALL
GASTEIGER

@<TRIPOS>ATOM
      1  N         47.8530   17.6060   41.5850 N.3    45  HIS45      -0.1241
      2  CA        47.3490   17.2250   40.2720 C.3    45  HIS45       0.1621
      3  C         48.1190   17.9190   39.1400 C.2    45  HIS45       0.2264
      4  O         48.0180   17.4520   38.0060 O.2    45  HIS45      -0.2867
      5  CB        45.8230   17.5340   40.1240 C.3    45  HIS45       0.0745
      6  CG        45.3550   18.9770   39.9520 C.ar   45  HIS45       0.0817
      7  ND1       44.7650   19.7640   40.8610 N.ar   45  HIS45      -0.2268
      8  CD2       45.4480   19.6980   38.7790 C.ar   45  HIS45       0.1154
      9  CE1       44.5050   20.9150   40.3060 C.ar   45  HIS45       0.1986
     10  NE2       44.9160   20.8500   39.0610 N.ar   45  HIS45      -0.2212
     11  N         47.7830   11.8330   48.5680 N.3    83  TRP83      -0.1241
     12  CA        47.1550   12.3470   47.3480 C.3    83  TRP83       0.1605
     13  C         46.6650   11.1840   46.5220 C.2    83  TRP83       0.2264
     14  O         47.4220   10.2500   46.2980 O.2    83  TRP83      -0.2867
     15  CB        48.1570   13.1690   46.4450 C.3    83  TRP83       0.0550
     16  CG        47.6330   13.5100   45.0180 C.ar   83  TRP83       0.0003
     17  CD1       48.3010   13.0790   43.8980 C.ar   83  TRP83       0.0946
     18  CD2       46.4900   14.2120   44.6820 C.ar   83  TRP83       0.0152
     19  NE1       47.5830   13.4950   42.8640 N.ar   83  TRP83      -0.2442
     20  CE2       46.5120   14.1610   43.2850 C.ar   83  TRP83       0.0810
     21  CE3       45.4360   14.8740   45.3190 C.ar   83  TRP83       0.0012
     22  CZ2       45.5120   14.7410   42.5210 C.ar   83  TRP83       0.0191
     23  CZ3       44.4250   15.4580   44.5490 C.ar   83  TRP83       0.0001
     24  CH2       44.4620   15.3980   43.1550 C.ar   83  TRP83       0.0015
     25  N         45.0760   10.6240   42.7860 N.3    85  THR85      -0.1203
     26  CA        44.6080   11.1810   41.5020 C.3    85  THR85       0.1994
     27  C         43.1460   10.9000   41.1230 C.2    85  THR85       0.2618
     28  O         42.4620   11.7480   40.5320 O.2    85  THR85      -0.2717
     29  CB        45.4320   10.6540   40.3510 C.3    85  THR85       0.1784
     30  OG1       46.7840   10.5910   40.7460 O.3    85  THR85      -0.2211
     31  CG2       45.2180   11.5220   39.1430 C.3    85  THR85       0.0376
     32  N         42.6700    9.6930   41.4710 N.am   86  ASP86      -0.1959
     33  CA        41.2850    9.2390   41.2350 C.3    86  ASP86       0.1840
     34  C         40.2340    9.8040   42.2100 C.2    86  ASP86       0.2622
     35  O         39.0350    9.4980   42.0750 O.2    86  ASP86      -0.2715
     36  CB        41.1320    7.7080   41.3490 C.3    86  ASP86       0.1450
     37  CG        42.0270    6.8080   40.5110 C.2    86  ASP86       0.3671
     38  OD1       42.4460    7.2140   39.4200 O.co2  86  ASP86      -0.2456
     39  OD2       42.2790    5.6870   40.9750 O.co2  86  ASP86      -0.2456
     40  N         40.6850   10.5720   43.2350 N.am   87  ASP87      -0.1957
     41  CA        39.7880   11.1800   44.2010 C.3    87  ASP87       0.1840
     42  C         40.2720   12.5750   44.6300 C.2    87  ASP87       0.2622
     43  O         40.7110   12.7250   45.7740 O.2    87  ASP87      -0.2715
     44  CB        39.7150   10.2180   45.3520 C.3    87  ASP87       0.1450
     45  CG        38.5670   10.4080   46.3250 C.2    87  ASP87       0.3671
     46  OD1       37.7980   11.3720   46.2190 O.co2  87  ASP87      -0.2456
     47  OD2       38.4680    9.5440   47.2030 O.co2  87  ASP87      -0.2456
     48  N         40.2070   13.6310   43.7700 N.am   88  VAL88      -0.1963
     49  CA        40.5900   14.9900   44.1900 C.3    88  VAL88       0.1727
     50  C         39.6760   15.4780   45.3380 C.2    88  VAL88       0.2616
     51  O         40.0990   16.2730   46.1660 O.2    88  VAL88      -0.2715
     52  CB        40.5330   15.9720   42.9150 C.3    88  VAL88       0.0290
     53  CG1       39.1250   16.3740   42.5520 C.3    88  VAL88       0.0023
     54  CG2       41.2520   17.2690   43.2060 C.3    88  VAL88       0.0023
     55  N         38.4420   14.9670   45.4490 N.am   89  ALA89      -0.1977
     56  CA        37.5100   15.3670   46.4820 C.3    89  ALA89       0.1597
     57  C         37.9130   14.8310   47.8460 C.2    89  ALA89       0.2287
     58  O         37.4090   15.2910   48.8670 O.2    89  ALA89      -0.2864
     59  CB        36.1250   14.8650   46.1380 C.3    89  ALA89       0.0319
     60  N         35.1250   29.7580   30.4880 N.3   137  THR137     -0.1203
     61  CA        34.9670   28.2990   30.4240 C.3   137  THR137      0.1994
     62  C         35.2370   27.8950   28.9630 C.2   137  THR137      0.2617
     63  O         34.6710   28.4860   28.0390 O.2   137  THR137     -0.2717
     64  CB        33.5360   27.9220   30.8150 C.3   137  THR137      0.1784
     65  OG1       33.4090   28.3130   32.1740 O.3   137  THR137     -0.2211
     66  CG2       33.1990   26.4580   30.6800 C.3   137  THR137      0.0376
     67  N         36.1260   26.9260   28.7490 N.am  138  ASN138     -0.1974
     68  CA        36.5380   26.4750   27.4240 C.3   138  ASN138      0.1688
     69  C         37.0830   27.5960   26.5590 C.2   138  ASN138      0.2292
     70  O         36.9340   27.5090   25.3390 O.2   138  ASN138     -0.2864
     71  CB        35.3700   25.8090   26.6760 C.3   138  ASN138      0.1181
     72  CG        34.9100   24.5440   27.3810 C.2   138  ASN138      0.2629
     73  OD1       35.7060   23.6530   27.7290 O.2   138  ASN138     -0.2716
     74  ND2       33.5960   24.5100   27.6140 N.am  138  ASN138     -0.0877
     75  N         28.4380   22.5900   47.2830 N.3   164  TRP164     -0.1241
     76  CA        29.1780   21.4250   46.8430 C.3   164  TRP164      0.1605
     77  C         28.8250   20.1580   47.5770 C.2   164  TRP164      0.2264
     78  O         29.2590   19.0740   47.2060 O.2   164  TRP164     -0.2867
     79  CB        30.6380   21.7040   47.0140 C.3   164  TRP164      0.0550
     80  CG        31.3060   22.4520   45.8740 C.ar  164  TRP164      0.0003
     81  CD1       31.6410   23.7890   45.9450 C.ar  164  TRP164      0.0946
     82  CD2       31.6990   21.8730   44.7010 C.ar  164  TRP164      0.0152
     83  NE1       32.2620   24.0510   44.8080 N.ar  164  TRP164     -0.2442
     84  CE2       32.3260   22.9560   44.0340 C.ar  164  TRP164      0.0810
     85  CE3       31.6050   20.6160   44.1230 C.ar  164  TRP164      0.0012
     86  CZ2       32.8810   22.7760   42.7530 C.ar  164  TRP164      0.0191
     87  CZ3       32.1490   20.4440   42.8470 C.ar  164  TRP164      0.0001
     88  CH2       32.7820   21.5030   42.1660 C.ar  164  TRP164      0.0015
     89  N         31.2910   16.8210   48.6820 N.3   167  THR167     -0.1218
     90  CA        32.5390   16.8640   47.9510 C.3   167  THR167      0.1862
     91  C         33.5150   17.7650   48.6700 C.2   167  THR167      0.2287
     92  O         34.6900   17.4210   48.6250 O.2   167  THR167     -0.2866
     93  CB        32.2000   17.3360   46.5390 C.3   167  THR167      0.1770
     94  OG1       31.3770   16.2910   46.0460 O.3   167  THR167     -0.2211
     95  CG2       33.3750   17.5740   45.6200 C.3   167  THR167      0.0375
     96  N         38.1600   30.8270   39.5650 N.3   183  GLY183     -0.1210
     97  CA        39.3640   30.2080   39.0030 C.3   183  GLY183      0.1956
     98  C         38.9720   29.4060   37.7640 C.2   183  GLY183      0.2612
     99  O         37.7800   29.1910   37.5210 O.2   183  GLY183     -0.2717
    100  N         39.9010   28.9610   36.9390 N.am  184  CYS184     -0.1956
    101  CA        39.5090   28.1540   35.7590 C.3   184  CYS184      0.1843
    102  C         40.7440   27.3400   35.3980 C.2   184  CYS184      0.2625
    103  O         41.7960   27.5680   35.9990 O.2   184  CYS184     -0.2714
    104  CB        39.0960   29.0560   34.5340 C.3   184  CYS184      0.0997
    105  SG        37.9540   28.2330   33.3740 S.3   184  CYS184     -0.0797
    106  N         40.7130   26.3890   34.4510 N.am  185  GLN185     -0.1977
    107  CA        41.8850   25.5920   34.0950 C.3   185  GLN185      0.1601
    108  C         43.1070   26.4150   33.8560 C.2   185  GLN185      0.2287
    109  O         42.9420   27.4560   33.2340 O.2   185  GLN185     -0.2864
    110  CB        41.6550   24.8100   32.8350 C.3   185  GLN185      0.0394
    111  CG        40.6800   23.6830   33.0980 C.3   185  GLN185      0.0908
    112  CD        39.2920   24.0170   32.6330 C.2   185  GLN185      0.2608
    113  OE1       38.8400   23.5350   31.5900 O.2   185  GLN185     -0.2717
    114  NE2       38.5690   24.8120   33.4040 N.am  185  GLN185     -0.0878
    115  N         44.8080   27.9260   36.2980 N.3   187  ASP187     -0.1225
    116  CA        44.9880   28.6100   37.5750 C.3   187  ASP187      0.1805
    117  C         45.3530   27.6040   38.6780 C.2   187  ASP187      0.2598
    118  O         45.8870   27.9990   39.7030 O.2   187  ASP187     -0.2718
    119  CB        43.7330   29.3450   38.0030 C.3   187  ASP187      0.1424
    120  CG        43.3800   30.5010   37.1030 C.2   187  ASP187      0.3668
    121  OD1       44.2820   31.1980   36.6520 O.co2 187  ASP187     -0.2456
    122  OD2       42.1990   30.6950   36.8600 O.co2 187  ASP187     -0.2456
    123  N         45.1200   26.3010   38.4600 N.am  188  SER188     -0.1952
    124  CA        45.4960   25.1840   39.3400 C.3   188  SER188      0.1924
    125  C         46.8320   25.3560   40.0150 C.2   188  SER188      0.2314
    126  O         47.7810   25.7910   39.3700 O.2   188  SER188     -0.2863
    127  CB        45.5800   23.8900   38.5340 C.3   188  SER188      0.2116
    128  OG        44.3140   23.3810   38.1100 O.3   188  SER188     -0.2180
    129  N         44.8960   26.5170   44.5250 N.3   206  THR206     -0.1203
    130  CA        43.6970   26.2570   43.6940 C.3   206  THR206      0.1994
    131  C         43.6320   24.7900   43.2460 C.2   206  THR206      0.2619
    132  O         44.6090   24.2200   42.7460 O.2   206  THR206     -0.2717
    133  CB        43.6990   27.1860   42.4390 C.3   206  THR206      0.1784
    134  OG1       43.9980   28.5380   42.8270 O.3   206  THR206     -0.2211
    135  CG2       42.3590   27.1270   41.7520 C.3   206  THR206      0.0376
    136  N         42.4780   24.1670   43.4650 N.am  207  SER207     -0.1937
    137  CA        42.3420   22.7420   43.2560 C.3   207  SER207      0.2055
    138  C         41.2830   22.3650   42.2250 C.2   207  SER207      0.2643
    139  O         41.6180   21.6640   41.2640 O.2   207  SER207     -0.2714
    140  CB        42.0140   22.0280   44.6150 C.3   207  SER207      0.2130
    141  OG        41.9640   20.6010   44.5180 O.3   207  SER207     -0.2179
    142  N         40.0150   22.7550   42.3500 N.am  208  PHE208     -0.1959
    143  CA        39.0550   22.3580   41.3580 C.3   208  PHE208      0.1771
    144  C         37.8670   23.3210   41.3020 C.2   208  PHE208      0.2619
    145  O         37.6280   24.1470   42.1980 O.2   208  PHE208     -0.2715
    146  CB        38.6090   20.8710   41.6460 C.3   208  PHE208      0.0574
    147  CG        37.8530   20.5400   42.9480 C.ar  208  PHE208     -0.0200
    148  CD1       36.4680   20.6400   42.9880 C.ar  208  PHE208     -0.0042
    149  CD2       38.5460   20.1390   44.0940 C.ar  208  PHE208     -0.0042
    150  CE1       35.7640   20.3540   44.1510 C.ar  208  PHE208     -0.0003
    151  CE2       37.8250   19.8610   45.2540 C.ar  208  PHE208     -0.0003
    152  CZ        36.4440   19.9680   45.2850 C.ar  208  PHE208     -0.0000
    153  N         37.2050   23.2380   40.1430 N.am  209  VAL209     -0.1963
    154  CA        35.9740   23.9260   39.8370 C.3   209  VAL209      0.1727
    155  C         34.9930   22.8740   39.3150 C.2   209  VAL209      0.2617
    156  O         35.3150   21.6980   39.1260 O.2   209  VAL209     -0.2715
    157  CB        36.1700   25.0460   38.7560 C.3   209  VAL209      0.0290
    158  CG1       36.9990   26.1920   39.3390 C.3   209  VAL209      0.0023
    159  CG2       36.8890   24.5170   37.5310 C.3   209  VAL209      0.0023
    160  N         33.7610   23.2960   39.1010 N.am  210  SER210     -0.1936
    161  CA        32.7150   22.4440   38.5620 C.3   210  SER210      0.2055
    162  C         33.0630   21.9360   37.1740 C.2   210  SER210      0.2643
    163  O         33.6600   22.6450   36.3690 O.2   210  SER210     -0.2714
    164  CB        31.4480   23.2480   38.4920 C.3   210  SER210      0.2130
    165  OG        30.3920   22.4880   37.9350 O.3   210  SER210     -0.2179
    166  N         32.6990   20.6870   36.9020 N.am  211  ARG211     -0.1963
    167  CA        32.8580   20.1430   35.5650 C.3   211  ARG211      0.1729
    168  C         31.8260   20.8450   34.6930 C.2   211  ARG211      0.2616
    169  O         32.0240   20.8450   33.4880 O.2   211  ARG211     -0.2715
    170  CB        32.6360   18.6110   35.5320 C.3   211  ARG211      0.0348
    171  CG        31.2740   18.0310   35.8710 C.3   211  ARG211      0.0492
    172  CD        31.1230   16.5500   35.4400 C.3   211  ARG211      0.2205
    173  NE        29.7200   16.1260   35.4900 N.pl3 211  ARG211     -0.0865
    174  CZ        28.8220   16.4120   34.5350 C.cat 211  ARG211      0.5346
    175  NH1       29.1120   17.1000   33.4260 N.pl3 211  ARG211      0.1354
    176  NH2       27.5580   16.0550   34.7200 N.pl3 211  ARG211      0.1354
    177  N         30.7610   21.4620   35.2350 N.am  212  LEU212     -0.1963
    178  CA        29.7990   22.1890   34.4170 C.3   212  LEU212      0.1728
    179  C         30.2800   23.5260   33.8670 C.2   212  LEU212      0.2617
    180  O         29.7650   24.0260   32.8570 O.2   212  LEU212     -0.2715
    181  CB        28.5700   22.4460   35.2000 C.3   212  LEU212      0.0311
    182  CG        27.9460   21.1560   35.7470 C.3   212  LEU212      0.0022
    183  CD1       26.8720   21.5370   36.7530 C.3   212  LEU212      0.0001
    184  CD2       27.4280   20.2760   34.6170 C.3   212  LEU212      0.0001
    185  N         31.2850   24.1090   34.5090 N.am  213  GLY213     -0.1940
    186  CA        31.7990   25.3920   34.1040 C.3   213  GLY213      0.2014
    187  C         32.6360   25.9500   35.2240 C.2   213  GLY213      0.2639
    188  O         32.4800   25.5670   36.3650 O.2   213  GLY213     -0.2714
    189  N         33.5510   26.8370   34.8700 N.am  214  CYS214     -0.1967
    190  CA        34.3680   27.5010   35.8450 C.3   214  CYS214      0.1712
    191  C         33.5790   28.4780   36.6990 C.2   214  CYS214      0.2296
    192  O         33.6350   28.3510   37.9040 O.2   214  CYS214     -0.2864
    193  CB        35.4610   28.2010   35.1160 C.3   214  CYS214      0.0983
    194  SG        36.6470   27.0640   34.3640 S.3   214  CYS214     -0.0798
@<TRIPOS>BOND
     1    70    69    2
     2    69    68    1
     3    71    72    1
     4    71    68    1
     5    72    74   am
     6    72    73    2
     7    68    67    1
     8    63    62    2
     9    67    62   am
    10    62    61    1
    11    61    60    1
    12    61    64    1
    13    66    64    1
    14    64    65    1
    15   113   112    2
    16   112   111    1
    17   112   114   am
    18   110   111    1
    19   110   107    1
    20   180   179    2
    21   109   108    2
    22   105   194    1
    23   105   104    1
    24   175   174    1
    25   169   168    2
    26   108   107    1
    27   179   178    1
    28   179   185   am
    29   107   106    1
    30   186   185    1
    31   186   187    1
    32   194   193    1
    33   178   181    1
    34   178   177    1
    35   106   102   am
    36   104   101    1
    37   174   176    1
    38   174   173    2
    39   184   182    1
    40   168   177   am
    41   168   167    1
    42   189   187   am
    43   189   190    1
    44   193   190    1
    45   181   182    1
    46   187   188    2
    47   102   101    1
    48   102   103    2
    49   172   173    1
    50   172   171    1
    51   170   167    1
    52   170   171    1
    53   167   166    1
    54   182   183    1
    55   101   100    1
    56   190   191    1
    57   115   116    1
    58   163   162    2
    59   121   120   ar
    60   191   192    2
    61   122   120   ar
    62   166   162   am
    63   100    98   am
    64   120   119    1
    65   162   161    1
    66    99    98    2
    67   159   157    1
    68   116   119    1
    69   116   117    1
    70    98    97    1
    71   165   164    1
    72     4     3    2
    73   128   127    1
    74   123   117   am
    75   123   124    1
    76   164   161    1
    77   127   124    1
    78   161   160    1
    79   117   118    2
    80   157   158    1
    81   157   154    1
    82     8    10   ar
    83     8     6   ar
    84    97    96    1
    85    10     9   ar
    86   160   155   am
    87   156   155    2
    88     3     2    1
    89    31    29    1
    90   155   154    1
    91   124   125    1
    92   126   125    2
    93    38    37   ar
    94   154   153    1
    95     6     5    1
    96     6     7   ar
    97     5     2    1
    98   153   144   am
    99     2     1    1
   100     9     7   ar
   101    29    30    1
   102    29    26    1
   103    37    39   ar
   104    37    36    1
   105    28    27    2
   106    27    32   am
   107    27    26    1
   108    33    36    1
   109    33    32    1
   110    33    34    1
   111   139   138    2
   112   144   143    1
   113   144   145    2
   114   143   146    1
   115   143   142    1
   116    26    25    1
   117   146   147    1
   118   135   133    1
   119    35    34    2
   120    88    86   ar
   121    88    87   ar
   122    34    40   am
   123   138   142   am
   124   138   137    1
   125   133   134    1
   126   133   130    1
   127    22    24   ar
   128    22    20   ar
   129    53    52    1
   130   132   131    2
   131    86    84   ar
   132    87    85   ar
   133    19    20   ar
   134    19    17   ar
   135    52    54    1
   136    52    49    1
   137   147   148   ar
   138   147   149   ar
   139   148   150   ar
   140    24    23   ar
   141    40    41    1
   142   131   136   am
   143   131   130    1
   144   137   136    1
   145   137   140    1
   146    20    18   ar
   147   130   129    1
   148    48    49    1
   149    48    42   am
   150    17    16   ar
   151    84    82   ar
   152    84    83   ar
   153   149   151   ar
   154    85    82   ar
   155   150   152   ar
   156    49    50    1
   157    41    42    1
   158    41    44    1
   159   141   140    1
   160    23    21   ar
   161    42    43    2
   162    18    16   ar
   163    18    21   ar
   164    82    80   ar
   165    83    81   ar
   166    16    15    1
   167   151   152   ar
   168    50    55   am
   169    50    51    2
   170    44    45    1
   171    55    56    1
   172    95    93    1
   173    80    81   ar
   174    80    79    1
   175    94    93    1
   176    59    56    1
   177    46    45   ar
   178    14    13    2
   179    45    47   ar
   180    15    12    1
   181    56    57    1
   182    13    12    1
   183    93    90    1
   184    76    79    1
   185    76    75    1
   186    76    77    1
   187    78    77    2
   188    12    11    1
   189    57    58    2
   190    90    91    1
   191    90    89    1
   192    92    91    2
