@<TRIPOS>MOLECULE
tmp/1bmbA00.pdb
 152 147 0 0 0
SMALL
GASTEIGER

@<TRIPOS>ATOM
      1  N         22.6090   28.8510   14.9770 N.3    12  ARG12      -0.1245
      2  CA        23.4870   27.8930   15.6320 C.3    12  ARG12       0.1563
      3  C         22.6620   27.0020   16.5840 C.2    12  ARG12       0.2260
      4  O         22.8280   25.7780   16.6210 O.2    12  ARG12      -0.2867
      5  CB        24.5550   28.6790   16.3980 C.3    12  ARG12       0.0307
      6  CG        25.5260   27.8640   17.2170 C.3    12  ARG12       0.0489
      7  CD        26.5330   28.7880   17.8840 C.3    12  ARG12       0.2205
      8  NE        27.3970   28.0810   18.8250 N.pl3  12  ARG12      -0.0865
      9  CZ        28.6990   27.8710   18.6550 C.cat  12  ARG12       0.5346
     10  NH1       29.3140   28.3050   17.5690 N.pl3  12  ARG12       0.1354
     11  NH2       29.3980   27.2550   19.5950 N.pl3  12  ARG12       0.1354
     12  N         21.9670   22.7470   16.6300 N.3    16  GLU16      -0.1245
     13  CA        22.1860   21.8920   17.7950 C.3    16  GLU16       0.1567
     14  C         20.9550   21.0600   18.1100 C.2    16  GLU16       0.2260
     15  O         21.0550   19.8650   18.3890 O.2    16  GLU16      -0.2867
     16  CB        22.5360   22.7250   19.0270 C.3    16  GLU16       0.0388
     17  CG        23.8500   23.4790   18.9190 C.3    16  GLU16       0.1160
     18  CD        24.2910   24.0950   20.2360 C.2    16  GLU16       0.3649
     19  OE1       23.4440   24.2660   21.1340 O.co2  16  GLU16      -0.2457
     20  OE2       25.4880   24.4120   20.3830 O.co2  16  GLU16      -0.2457
     21  N         26.1340   25.2000    7.4340 N.3    31  ARG31      -0.1245
     22  CA        25.2260   26.3360    7.5150 C.3    31  ARG31       0.1563
     23  C         25.9770   27.6370    7.2650 C.2    31  ARG31       0.2260
     24  O         27.1980   27.7090    7.4090 O.2    31  ARG31      -0.2867
     25  CB        24.5470   26.3810    8.8970 C.3    31  ARG31       0.0307
     26  CG        25.5100   26.3360   10.0730 C.3    31  ARG31       0.0489
     27  CD        24.7880   26.2760   11.4230 C.3    31  ARG31       0.2205
     28  NE        25.7420   26.1010   12.5200 N.pl3  31  ARG31      -0.0865
     29  CZ        26.4230   27.0870   13.1010 C.cat  31  ARG31       0.5346
     30  NH1       26.2570   28.3460   12.7150 N.pl3  31  ARG31       0.1354
     31  NH2       27.3340   26.8070   14.0210 N.pl3  31  ARG31       0.1354
     32  N         26.9780   31.0360    8.4210 N.3    33  SER33      -0.1202
     33  CA        27.1130   31.6720    9.7190 C.3    33  SER33       0.2020
     34  C         26.3550   32.9790    9.8700 C.2    33  SER33       0.2619
     35  O         26.3920   33.8510    9.0050 O.2    33  SER33      -0.2717
     36  CB        28.5910   31.9020   10.0380 C.3    33  SER33       0.2103
     37  OG        28.7590   32.4620   11.3310 O.3    33  SER33      -0.2182
     38  N         25.6510   33.0970   10.9850 N.am   34  GLU34      -0.1965
     39  CA        24.9100   34.3060   11.3010 C.3    34  GLU34       0.1733
     40  C         25.8140   35.3020   12.0150 C.2    34  GLU34       0.2617
     41  O         25.6510   36.5050   11.8560 O.2    34  GLU34      -0.2715
     42  CB        23.7110   33.9970   12.1880 C.3    34  GLU34       0.0429
     43  CG        22.4570   33.6040   11.4340 C.3    34  GLU34       0.1163
     44  CD        21.2540   33.4390   12.3410 C.2    34  GLU34       0.3649
     45  OE1       21.4390   33.4060   13.5760 O.co2  34  GLU34      -0.2457
     46  OE2       20.1180   33.3590   11.8170 O.co2  34  GLU34      -0.2457
     47  N         26.7830   34.8090   12.7800 N.am   35  SER35      -0.1950
     48  CA        27.6850   35.7030   13.4940 C.3    35  SER35       0.1924
     49  C         28.7800   36.2580   12.5840 C.2    35  SER35       0.2314
     50  O         29.3380   37.3190   12.8570 O.2    35  SER35      -0.2863
     51  CB        28.2900   35.0140   14.7220 C.3    35  SER35       0.2116
     52  OG        29.1590   33.9490   14.3740 O.3    35  SER35      -0.2180
     53  N         29.8090   27.3820    8.5250 N.3    41  SER41      -0.1217
     54  CA        30.0810   26.6450    9.7460 C.3    41  SER41       0.1889
     55  C         29.6410   25.2000    9.5570 C.2    41  SER41       0.2288
     56  O         28.7240   24.9130    8.7910 O.2    41  SER41      -0.2866
     57  CB        29.3190   27.2550   10.9190 C.3    41  SER41       0.2089
     58  OG        29.7760   28.5620   11.1720 O.3    41  SER41      -0.2183
     59  N         29.1540   19.5880   18.2020 N.3    51  GLN51      -0.1231
     60  CA        30.2810   20.5080   18.0870 C.3    51  GLN51       0.1698
     61  C         30.2040   21.3580   16.8210 C.2    51  GLN51       0.2592
     62  O         29.6250   20.9370   15.8170 O.2    51  GLN51      -0.2718
     63  CB        31.5970   19.7290   18.1020 C.3    51  GLN51       0.0381
     64  CG        31.8870   19.0290   19.4200 C.3    51  GLN51       0.0905
     65  CD        33.0380   18.0440   19.3310 C.2    51  GLN51       0.2608
     66  OE1       33.8920   18.1400   18.4470 O.2    51  GLN51      -0.2717
     67  NE2       33.0720   17.0920   20.2570 N.am   51  GLN51      -0.0878
     68  N         30.8030   22.5440   16.8680 N.am   52  HIS52      -0.1962
     69  CA        30.7970   23.4590   15.7310 C.3    52  HIS52       0.1787
     70  C         32.2160   23.7670   15.2870 C.2    52  HIS52       0.2620
     71  O         33.1070   23.9580   16.1180 O.2    52  HIS52      -0.2715
     72  CB        30.1040   24.7610   16.1080 C.3    52  HIS52       0.0785
     73  CG        28.7290   24.5660   16.6550 C.ar   52  HIS52       0.0821
     74  ND1       27.6350   24.3440   15.8490 N.ar   52  HIS52      -0.2267
     75  CD2       28.2700   24.5440   17.9280 C.ar   52  HIS52       0.1154
     76  CE1       26.5590   24.1960   16.6000 C.ar   52  HIS52       0.1986
     77  NE2       26.9180   24.3120   17.8670 N.ar   52  HIS52      -0.2212
     78  N         32.4130   23.8030   13.9750 N.am   53  PHE53      -0.1960
     79  CA        33.7040   24.0890   13.3750 C.3    53  PHE53       0.1771
     80  C         33.4960   25.2260   12.3920 C.2    53  PHE53       0.2619
     81  O         32.4810   25.2790   11.6970 O.2    53  PHE53      -0.2715
     82  CB        34.2270   22.8710   12.5960 C.3    53  PHE53       0.0574
     83  CG        34.5960   21.7070   13.4630 C.ar   53  PHE53      -0.0200
     84  CD1       33.6090   20.8850   14.0060 C.ar   53  PHE53      -0.0042
     85  CD2       35.9260   21.4500   13.7640 C.ar   53  PHE53      -0.0042
     86  CE1       33.9450   19.8280   14.8440 C.ar   53  PHE53      -0.0003
     87  CE2       36.2730   20.3980   14.5980 C.ar   53  PHE53      -0.0003
     88  CZ        35.2790   19.5840   15.1430 C.ar   53  PHE53      -0.0000
     89  N         34.4450   26.1420   12.3370 N.am   54  LYS54      -0.1977
     90  CA        34.3500   27.2510   11.4010 C.3    54  LYS54       0.1596
     91  C         35.0750   26.8370   10.1270 C.2    54  LYS54       0.2287
     92  O         36.1590   26.2560   10.1940 O.2    54  LYS54      -0.2864
     93  CB        35.0220   28.4900   11.9870 C.3    54  LYS54       0.0298
     94  CG        34.8550   29.7290   11.1650 C.3    54  LYS54       0.0038
     95  CD        35.4380   30.9150   11.8910 C.3    54  LYS54       0.0206
     96  CE        34.9300   32.2110   11.3170 C.3    54  LYS54       0.1093
     97  NZ        33.4580   32.3280   11.4420 N.3    54  LYS54      -0.1314
     98  N         37.3520   27.6660    7.5370 N.3    56  LEU56      -0.1245
     99  CA        38.3630   28.6860    7.3510 C.3    56  LEU56       0.1561
    100  C         38.7160   28.9020    5.8810 C.2    56  LEU56       0.2260
    101  O         38.5190   28.0190    5.0470 O.2    56  LEU56      -0.2867
    102  CB        39.6060   28.3140    8.1630 C.3    56  LEU56       0.0270
    103  CG        39.3640   28.0260    9.6520 C.3    56  LEU56       0.0019
    104  CD1       40.6400   27.5530   10.3280 C.3    56  LEU56       0.0001
    105  CD2       38.8300   29.2770   10.3330 C.3    56  LEU56       0.0001
    106  N         39.6920   23.1440    7.4270 N.3    65  LEU65      -0.1231
    107  CA        39.3260   23.0690    8.8360 C.3    65  LEU65       0.1693
    108  C         40.5870   23.2000    9.6770 C.2    65  LEU65       0.2592
    109  O         40.6000   23.9170   10.6730 O.2    65  LEU65      -0.2718
    110  CB        38.6110   21.7540    9.1580 C.3    65  LEU65       0.0284
    111  CG        37.2240   21.5570    8.5380 C.3    65  LEU65       0.0019
    112  CD1       36.6680   20.1920    8.9320 C.3    65  LEU65       0.0001
    113  CD2       36.2840   22.6670    8.9980 C.3    65  LEU65       0.0001
    114  N         41.6560   22.5340    9.2480 N.am   66  TRP66      -0.1976
    115  CA        42.9170   22.5780    9.9740 C.3    66  TRP66       0.1640
    116  C         44.1160   22.8550    9.0810 C.2    66  TRP66       0.2290
    117  O         44.6780   23.9480    9.1190 O.2    66  TRP66      -0.2864
    118  CB        43.1500   21.2690   10.7350 C.3    66  TRP66       0.0576
    119  CG        42.0850   20.9450   11.7360 C.ar   66  TRP66       0.0006
    120  CD1       41.0310   20.0950   11.5630 C.ar   66  TRP66       0.0946
    121  CD2       41.9690   21.4670   13.0660 C.ar   66  TRP66       0.0152
    122  NE1       40.2660   20.0560   12.7000 N.ar   66  TRP66      -0.2442
    123  CE2       40.8150   20.8810   13.6370 C.ar   66  TRP66       0.0810
    124  CE3       42.7270   22.3640   13.8290 C.ar   66  TRP66       0.0012
    125  CZ2       40.4050   21.1670   14.9470 C.ar   66  TRP66       0.0191
    126  CZ3       42.3140   22.6480   15.1330 C.ar   66  TRP66       0.0001
    127  CH2       41.1630   22.0480   15.6750 C.ar   66  TRP66       0.0015
    128  N         38.1770   16.4060   13.6990 N.3    86  SER86      -0.1202
    129  CA        38.7200   16.7680   15.0040 C.3    86  SER86       0.2020
    130  C         40.1260   16.2090   15.2000 C.2    86  SER86       0.2619
    131  O         40.4710   15.1680   14.6430 O.2    86  SER86      -0.2717
    132  CB        37.7880   16.2490   16.1090 C.3    86  SER86       0.2103
    133  OG        38.3640   16.4040   17.3960 O.3    86  SER86      -0.2182
    134  N         40.9250   16.8940   16.0140 N.am   87  ARG87      -0.1965
    135  CA        42.2900   16.4610   16.2970 C.3    87  ARG87       0.1729
    136  C         42.3510   15.5580   17.5230 C.2    87  ARG87       0.2616
    137  O         43.2460   14.7250   17.6420 O.2    87  ARG87      -0.2715
    138  CB        43.2040   17.6620   16.5320 C.3    87  ARG87       0.0348
    139  CG        43.5190   18.4720   15.2960 C.3    87  ARG87       0.0492
    140  CD        44.5600   19.5170   15.6270 C.3    87  ARG87       0.2205
    141  NE        44.1090   20.3890   16.7100 N.pl3  87  ARG87      -0.0865
    142  CZ        44.8070   21.4160   17.1930 C.cat  87  ARG87       0.5346
    143  NH1       46.0020   21.7070   16.6900 N.pl3  87  ARG87       0.1354
    144  NH2       44.2990   22.1660   18.1670 N.pl3  87  ARG87       0.1354
    145  N         41.4040   15.7280   18.4360 N.am   88  ASN88      -0.1972
    146  CA        41.3880   14.9240   19.6550 C.3    88  ASN88       0.1688
    147  C         40.3950   13.7740   19.6370 C.2    88  ASN88       0.2292
    148  O         40.5140   12.8390   20.4280 O.2    88  ASN88      -0.2864
    149  CB        41.1850   15.8050   20.9040 C.3    88  ASN88       0.1181
    150  CG        39.8950   16.6090   20.8700 C.2    88  ASN88       0.2629
    151  OD1       38.8320   16.0880   20.5460 O.2    88  ASN88      -0.2716
    152  ND2       39.9790   17.8760   21.2410 N.am   88  ASN88      -0.0877
@<TRIPOS>BOND
     1   101   100    2
     2   100    99    1
     3    23    24    2
     4    23    22    1
     5    99    98    1
     6    99   102    1
     7   106   107    1
     8    21    22    1
     9    22    25    1
    10   102   103    1
    11    32    33    1
    12    53    54    1
    13   111   112    1
    14   111   113    1
    15   111   110    1
    16    56    55    2
    17   107   110    1
    18   107   108    1
    19    25    26    1
    20    35    34    2
    21   116   117    2
    22   116   115    1
    23   114   108   am
    24   114   115    1
    25    55    54    1
    26   103   104    1
    27   103   105    1
    28   108   109    2
    29    33    34    1
    30    33    36    1
    31    54    57    1
    32    34    38   am
    33   115   118    1
    34    36    37    1
    35    26    27    1
    36    91    92    2
    37    91    90    1
    38   118   119    1
    39    57    58    1
    40    38    39    1
    41    94    95    1
    42    94    93    1
    43    39    40    1
    44    39    42    1
    45    96    97    1
    46    96    95    1
    47    90    93    1
    48    90    89    1
    49    27    28    1
    50    43    42    1
    51    43    44    1
    52   120   119   ar
    53   120   122   ar
    54    81    80    2
    55   119   121   ar
    56    46    44   ar
    57    41    40    2
    58    40    47   am
    59    89    80   am
    60    44    45   ar
    61    80    79    1
    62    28    29    2
    63    49    50    2
    64    49    48    1
    65    82    79    1
    66    82    83    1
    67   122   123   ar
    68    30    29    1
    69    47    48    1
    70   121   123   ar
    71   121   124   ar
    72    29    31    1
    73    79    78    1
    74    83    85   ar
    75    83    84   ar
    76    48    51    1
    77   123   125   ar
    78   128   129    1
    79    85    87   ar
    80   124   126   ar
    81    78    70   am
    82    84    86   ar
    83    52    51    1
    84    87    88   ar
    85   131   130    2
    86    86    88   ar
    87   125   127   ar
    88     1     2    1
    89   129   130    1
    90   129   132    1
    91   126   127   ar
    92   130   134   am
    93    70    69    1
    94    70    71    2
    95   139   140    1
    96   139   138    1
    97   140   141    1
    98     2     5    1
    99     2     3    1
   100    69    72    1
   101    69    68    1
   102    62    61    2
   103    74    76   ar
   104    74    73   ar
   105   134   135    1
   106    72    73    1
   107   132   133    1
   108   135   138    1
   109   135   136    1
   110     5     6    1
   111     3     4    2
   112    76    77   ar
   113    12    13    1
   114    73    75   ar
   115   143   142    1
   116   141   142    2
   117    61    68   am
   118    61    60    1
   119   142   144    1
   120     6     7    1
   121   136   137    2
   122   136   145   am
   123    10     9    1
   124    13    14    1
   125    13    16    1
   126    77    75   ar
   127     7     8    1
   128    60    63    1
   129    60    59    1
   130    63    64    1
   131    14    15    2
   132   145   146    1
   133    66    65    2
   134     9     8    2
   135     9    11    1
   136    17    16    1
   137    17    18    1
   138    65    64    1
   139    65    67   am
   140   147   146    1
   141   147   148    2
   142   146   149    1
   143    18    20   ar
   144    18    19   ar
   145   151   150    2
   146   150   149    1
   147   150   152   am
