@<TRIPOS>MOLECULE
tmp/1bmfF01.pdb
 173 166 0 0 0
SMALL
GASTEIGER

@<TRIPOS>ATOM
      1  N        110.9090   81.1450   94.6550 N.3   150  ALA150     -0.1231
      2  CA       111.2230   82.3490   95.4200 C.3   150  ALA150      0.1694
      3  C        110.0480   83.0040   96.1250 C.2   150  ALA150      0.2593
      4  O        108.9360   83.1380   95.6410 O.2   150  ALA150     -0.2718
      5  CB       111.9600   83.3460   94.5460 C.3   150  ALA150      0.0304
      6  N        110.2510   83.4410   97.3590 N.am  151  GLY151     -0.1942
      7  CA       109.3550   84.1150   98.2220 C.3   151  GLY151      0.2014
      8  C        108.0540   83.4440   98.5400 C.2   151  GLY151      0.2639
      9  O        107.0300   84.1230   98.7510 O.2   151  GLY151     -0.2714
     10  N        108.0360   82.1170   98.6560 N.am  152  VAL152     -0.1963
     11  CA       106.7870   81.3830   98.9210 C.3   152  VAL152      0.1727
     12  C        106.5390   81.0020  100.3520 C.2   152  VAL152      0.2617
     13  O        105.3510   80.8150  100.7070 O.2   152  VAL152     -0.2715
     14  CB       106.6830   80.1740   97.9620 C.3   152  VAL152      0.0290
     15  CG1      105.3440   79.4910   98.0800 C.3   152  VAL152      0.0023
     16  CG2      106.8140   80.6330   96.5060 C.3   152  VAL152      0.0023
     17  N        107.5530   80.9130  101.2180 N.am  153  GLY153     -0.1940
     18  CA       107.3030   80.5660  102.6170 C.3   153  GLY153      0.2014
     19  C        108.3150   79.6100  103.1950 C.2   153  GLY153      0.2639
     20  O        108.1590   79.1730  104.3530 O.2   153  GLY153     -0.2714
     21  N        109.3820   79.2670  102.4560 N.am  154  LYS154     -0.1963
     22  CA       110.3430   78.3230  103.0310 C.3   154  LYS154      0.1728
     23  C        110.9070   78.7860  104.3630 C.2   154  LYS154      0.2617
     24  O        110.8250   78.0500  105.3360 O.2   154  LYS154     -0.2715
     25  CB       111.4890   78.0500  102.0760 C.3   154  LYS154      0.0311
     26  CG       111.0430   77.6510  100.6810 C.3   154  LYS154      0.0038
     27  CD       112.2390   77.5720   99.7480 C.3   154  LYS154      0.0206
     28  CE       112.7900   78.9450   99.4710 C.3   154  LYS154      0.1093
     29  NZ       112.3700   79.5640   98.1980 N.3   154  LYS154     -0.1314
     30  N        111.4630   79.9930  104.4210 N.am  155  THR155     -0.1937
     31  CA       112.0730   80.5310  105.6230 C.3   155  THR155      0.2028
     32  C        111.0940   80.7980  106.7510 C.2   155  THR155      0.2642
     33  O        111.4760   80.5700  107.9120 O.2   155  THR155     -0.2714
     34  CB       112.8570   81.8380  105.4020 C.3   155  THR155      0.1808
     35  OG1      113.9470   81.5910  104.5040 O.3   155  THR155     -0.2208
     36  CG2      113.3520   82.3990  106.7250 C.3   155  THR155      0.0379
     37  N        109.9360   81.3350  106.4090 N.am  156  VAL156     -0.1977
     38  CA       108.9380   81.6160  107.4460 C.3   156  VAL156      0.1596
     39  C        108.5500   80.2850  108.0890 C.2   156  VAL156      0.2287
     40  O        108.4020   80.2130  109.3170 O.2   156  VAL156     -0.2864
     41  CB       107.7110   82.3340  106.8970 C.3   156  VAL156      0.0276
     42  CG1      106.5550   82.3030  107.8810 C.3   156  VAL156      0.0022
     43  CG2      108.0400   83.7870  106.5800 C.3   156  VAL156      0.0022
     44  N        122.2230   81.9540  101.7960 N.3   180  GLU180     -0.1231
     45  CA       121.0420   82.8220  101.9240 C.3   180  GLU180      0.1699
     46  C        121.3770   84.2410  102.2820 C.2   180  GLU180      0.2592
     47  O        122.5210   84.7030  102.0330 O.2   180  GLU180     -0.2718
     48  CB       119.9730   82.1690  102.7750 C.3   180  GLU180      0.0402
     49  CG       119.3480   80.9980  101.9720 C.3   180  GLU180      0.1161
     50  CD       118.4880   81.5110  100.8250 C.2   180  GLU180      0.3649
     51  OE1      117.7220   82.5030  101.0290 O.co2 180  GLU180     -0.2457
     52  OE2      118.5130   80.9200   99.7020 O.co2 180  GLU180     -0.2457
     53  N        120.4080   84.9900  102.8220 N.am  181  ARG181     -0.1980
     54  CA       120.6810   86.4080  103.0970 C.3   181  ARG181      0.1597
     55  C        121.4410   86.6390  104.3830 C.2   181  ARG181      0.2287
     56  O        121.0910   86.0160  105.3920 O.2   181  ARG181     -0.2864
     57  CB       119.3590   87.1740  103.1620 C.3   181  ARG181      0.0334
     58  CG       118.4880   87.1360  101.9300 C.3   181  ARG181      0.0492
     59  CD       117.0390   87.4480  102.3200 C.3   181  ARG181      0.2205
     60  NE       116.2500   87.7910  101.1380 N.pl3 181  ARG181     -0.0865
     61  CZ       115.5950   86.8890  100.4150 C.cat 181  ARG181      0.5346
     62  NH1      115.6510   85.6100  100.7930 N.pl3 181  ARG181      0.1354
     63  NH2      114.8870   87.1910   99.3200 N.pl3 181  ARG181      0.1354
     64  N        119.4180   87.7990  107.3170 N.3   184  GLU184     -0.1245
     65  CA       118.6160   86.7470  107.9530 C.3   184  GLU184      0.1567
     66  C        119.4310   86.1280  109.0620 C.2   184  GLU184      0.2260
     67  O        118.9220   85.8480  110.1510 O.2   184  GLU184     -0.2867
     68  CB       118.1010   85.8070  106.8900 C.3   184  GLU184      0.0388
     69  CG       116.7320   86.1660  106.3300 C.3   184  GLU184      0.1160
     70  CD       116.3430   85.3510  105.1300 C.2   184  GLU184      0.3649
     71  OE1      117.1950   84.5970  104.6010 O.co2 184  GLU184     -0.2457
     72  OE2      115.1750   85.4230  104.6730 O.co2 184  GLU184     -0.2457
     73  N        119.1780   76.4170  105.5940 N.3   248  ASP248     -0.1239
     74  CA       118.4480   77.3100  104.6540 C.3   248  ASP248      0.1674
     75  C        119.6060   77.8250  103.8050 C.2   248  ASP248      0.2266
     76  O        120.4950   78.5220  104.3190 O.2   248  ASP248     -0.2867
     77  CB       117.7070   78.3480  105.4320 C.3   248  ASP248      0.1410
     78  CG       116.6420   79.1500  104.7650 C.2   248  ASP248      0.3668
     79  OD1      116.3120   79.0220  103.5540 O.co2 248  ASP248     -0.2456
     80  OD2      116.0060   80.0090  105.4380 O.co2 248  ASP248     -0.2456
     81  N        121.2850   75.9030   97.5240 N.3   252  ARG252     -0.1245
     82  CA       122.4430   76.7490   97.2950 C.3   252  ARG252      0.1563
     83  C        123.7460   75.9810   97.1900 C.2   252  ARG252      0.2260
     84  O        124.6360   76.3930   96.4170 O.2   252  ARG252     -0.2867
     85  CB       122.5040   77.8120   98.3810 C.3   252  ARG252      0.0307
     86  CG       121.2640   78.6990   98.4740 C.3   252  ARG252      0.0489
     87  CD       121.1310   79.5190   97.1950 C.3   252  ARG252      0.2205
     88  NE       119.9320   80.3620   97.2250 N.pl3 252  ARG252     -0.0865
     89  CZ       119.3720   80.8220   96.0900 C.cat 252  ARG252      0.5346
     90  NH1      119.8970   80.5270   94.8860 N.pl3 252  ARG252      0.1354
     91  NH2      118.2830   81.5800   96.1960 N.pl3 252  ARG252      0.1354
     92  N        115.0650   75.6070   97.7050 N.3   303  TYR303     -0.1241
     93  CA       114.7210   76.6110   96.7150 C.3   303  TYR303      0.1605
     94  C        114.6100   75.9540   95.3350 C.2   303  TYR303      0.2264
     95  O        115.4880   75.2500   94.8340 O.2   303  TYR303     -0.2867
     96  CB       115.7930   77.7160   96.7420 C.3   303  TYR303      0.0534
     97  CG       115.4830   78.7530   95.7030 C.ar  303  TYR303     -0.0201
     98  CD1      114.6030   79.7860   95.9590 C.ar  303  TYR303     -0.0009
     99  CD2      116.0630   78.6470   94.4450 C.ar  303  TYR303     -0.0009
    100  CE1      114.3090   80.7080   94.9640 C.ar  303  TYR303      0.0417
    101  CE2      115.7740   79.5750   93.4360 C.ar  303  TYR303      0.0417
    102  CZ       114.8950   80.5910   93.7290 C.ar  303  TYR303      0.1957
    103  OH       114.5830   81.4890   92.7540 O.3   303  TYR303     -0.2866
    104  N         98.1340   80.5370  103.5910 N.3   337  TYR337     -0.1228
    105  CA        99.4740   80.3190  104.1500 C.3   337  TYR337      0.1721
    106  C         99.3650   79.3950  105.3520 C.2   337  TYR337      0.2437
    107  O         98.4410   79.5420  106.1500 O.2   337  TYR337     -0.2733
    108  CB       100.0680   81.6260  104.6010 C.3   337  TYR337      0.0547
    109  CG       100.4800   82.4940  103.4400 C.ar  337  TYR337     -0.0200
    110  CD1      101.6470   82.1670  102.7530 C.ar  337  TYR337     -0.0009
    111  CD2       99.7430   83.5910  103.0450 C.ar  337  TYR337     -0.0009
    112  CE1      102.0830   82.9400  101.6940 C.ar  337  TYR337      0.0417
    113  CE2      100.1610   84.3640  101.9810 C.ar  337  TYR337      0.0417
    114  CZ       101.3220   84.0410  101.3310 C.ar  337  TYR337      0.1957
    115  OH       101.7520   84.8170  100.2760 O.3   337  TYR337     -0.2866
    116  N        100.2830   78.4650  105.4720 N.am  338  PRO338     -0.2729
    117  CA       101.3970   78.2690  104.5530 C.3   338  PRO338      0.1401
    118  C        100.9080   77.7480  103.2110 C.2   338  PRO338      0.2269
    119  O         99.9410   76.9640  103.1570 O.2   338  PRO338     -0.2865
    120  CB       102.3780   77.3250  105.2450 C.3   338  PRO338      0.0296
    121  CG       101.5300   76.6820  106.2960 C.3   338  PRO338      0.0237
    122  CD       100.2990   77.4790  106.5610 C.3   338  PRO338      0.0939
    123  N         96.6210   78.8300  108.1880 N.3   408  GLN408     -0.1245
    124  CA        96.6920   79.1260  109.6370 C.3   408  GLN408      0.1566
    125  C         97.7020   80.2160  109.9050 C.2   408  GLN408      0.2260
    126  O         98.6980   80.3650  109.1820 O.2   408  GLN408     -0.2867
    127  CB        96.9860   77.8110  110.3290 C.3   408  GLN408      0.0367
    128  CG        97.7960   77.7920  111.5800 C.3   408  GLN408      0.0905
    129  CD        98.2470   76.4050  111.9890 C.2   408  GLN408      0.2608
    130  OE1       98.0620   75.4580  111.2270 O.2   408  GLN408     -0.2717
    131  NE2       98.8430   76.2830  113.1730 N.am  408  GLN408     -0.0878
    132  N        100.7280   82.0530  111.7310 N.3   410  PHE410     -0.1241
    133  CA       101.9820   81.7020  112.4020 C.3   410  PHE410      0.1605
    134  C        102.4290   82.8500  113.3090 C.2   410  PHE410      0.2264
    135  O        102.2340   84.0050  112.9170 O.2   410  PHE410     -0.2867
    136  CB       103.0660   81.4640  111.3600 C.3   410  PHE410      0.0534
    137  CG       103.0330   80.2050  110.5570 C.ar  410  PHE410     -0.0203
    138  CD1      102.1620   79.1630  110.8260 C.ar  410  PHE410     -0.0042
    139  CD2      103.9200   80.0530  109.5010 C.ar  410  PHE410     -0.0042
    140  CE1      102.1750   78.0100  110.0790 C.ar  410  PHE410     -0.0003
    141  CE2      103.9370   78.8990  108.7440 C.ar  410  PHE410     -0.0003
    142  CZ       103.0560   77.8830  109.0250 C.ar  410  PHE410     -0.0000
    143  N        104.5240   85.0140  111.4300 N.3   413  ALA413     -0.1245
    144  CA       103.9550   85.8040  110.3340 C.3   413  ALA413      0.1562
    145  C        102.8220   86.7150  110.8070 C.2   413  ALA413      0.2260
    146  O        102.0390   87.2230  109.9920 O.2   413  ALA413     -0.2867
    147  CB       103.5000   84.9330  109.1840 C.3   413  ALA413      0.0290
    148  N        102.0990   90.0120  109.2090 N.3   416  PHE416     -0.1227
    149  CA       101.5180   90.0260  107.8670 C.3   416  PHE416      0.1736
    150  C        100.1010   89.4690  107.8560 C.2   416  PHE416      0.2596
    151  O         99.3340   89.8860  106.9870 O.2   416  PHE416     -0.2718
    152  CB       102.3380   89.2340  106.8520 C.3   416  PHE416      0.0547
    153  CG       103.7720   89.6080  106.6780 C.ar  416  PHE416     -0.0202
    154  CD1      104.1420   90.6250  105.8070 C.ar  416  PHE416     -0.0042
    155  CD2      104.7720   88.9280  107.3560 C.ar  416  PHE416     -0.0042
    156  CE1      105.4630   90.9820  105.6230 C.ar  416  PHE416     -0.0003
    157  CE2      106.0970   89.2740  107.1730 C.ar  416  PHE416     -0.0003
    158  CZ       106.4350   90.3000  106.3100 C.ar  416  PHE416     -0.0000
    159  N         99.7860   88.5330  108.7490 N.am  417  THR417     -0.1953
    160  CA        98.4280   87.9880  108.6870 C.3   417  THR417      0.1897
    161  C         97.4600   88.9480  109.3630 C.2   417  THR417      0.2313
    162  O         96.2690   88.9560  109.1050 O.2   417  THR417     -0.2863
    163  CB        98.3580   86.6610  109.4530 C.3   417  THR417      0.1794
    164  OG1       98.4240   86.9740  110.8480 O.3   417  THR417     -0.2208
    165  CG2       99.5040   85.7810  109.0400 C.3   417  THR417      0.0378
    166  N         92.0480   81.4460  107.9000 N.3   451  MET451     -0.1245
    167  CA        92.9470   81.9180  108.9180 C.3   451  MET451      0.1570
    168  C         92.4730   81.7030  110.3360 C.2   451  MET451      0.2261
    169  O         92.1730   82.6900  111.0180 O.2   451  MET451     -0.2867
    170  CB        93.2810   83.4150  108.7020 C.3   451  MET451      0.0387
    171  CG        94.3990   83.5620  107.6680 C.3   451  MET451      0.0595
    172  SD        95.9650   83.0030  108.3350 S.3   451  MET451     -0.1393
    173  CE        96.9780   82.9120  106.8730 C.3   451  MET451      0.0692
@<TRIPOS>BOND
     1   103   102    1
     2   101   102   ar
     3   101    99   ar
     4   102   100   ar
     5    99    97   ar
     6     5     2    1
     7     1     2    1
     8    95    94    2
     9    90    89    1
    10   100    98   ar
    11    94    93    1
    12     2     3    1
    13     4     3    2
    14    97    98   ar
    15    97    96    1
    16    89    91    1
    17    89    88    2
    18     3     6   am
    19    84    83    2
    20    16    14    1
    21    93    96    1
    22    93    92    1
    23    83    82    1
    24    87    88    1
    25    87    86    1
    26    82    81    1
    27    82    85    1
    28     6     7    1
    29    14    15    1
    30    14    11    1
    31    29    28    1
    32     7     8    1
    33    85    86    1
    34     8    10   am
    35     8     9    2
    36    10    11    1
    37    11    12    1
    38    63    61    1
    39    28    27    1
    40    52    50   ar
    41    27    26    1
    42   115   114    1
    43    12    13    2
    44    12    17   am
    45    61    62    1
    46    61    60    2
    47    26    25    1
    48    50    51   ar
    49    50    49    1
    50    60    59    1
    51    17    18    1
    52   114   112   ar
    53   114   113   ar
    54   112   110   ar
    55    44    45    1
    56    45    46    1
    57    45    48    1
    58    58    59    1
    59    58    57    1
    60    49    48    1
    61   113   111   ar
    62    47    46    2
    63    25    22    1
    64    46    53   am
    65    21    22    1
    66    21    19   am
    67    18    19    1
    68   110   109   ar
    69    53    54    1
    70    22    23    1
    71   111   109   ar
    72    54    57    1
    73    54    55    1
    74   119   118    2
    75    19    20    2
    76   118   117    1
    77   109   108    1
    78    79    78   ar
    79   104   105    1
    80    75    76    2
    81    75    74    1
    82   105   108    1
    83   105   106    1
    84    23    30   am
    85    23    24    2
    86    55    56    2
    87    30    31    1
    88    35    34    1
    89   117   120    1
    90   117   116    1
    91    71    70   ar
    92    74    77    1
    93    74    73    1
    94    72    70   ar
    95    78    77    1
    96    78    80   ar
    97    70    69    1
    98   120   121    1
    99   106   116   am
   100   106   107    2
   101    34    31    1
   102    34    36    1
   103   116   122    1
   104   156   154   ar
   105   156   158   ar
   106    31    32    1
   107   154   153   ar
   108   121   122    1
   109   158   157   ar
   110    69    68    1
   111    37    32   am
   112    37    38    1
   113    43    41    1
   114   153   152    1
   115   153   155   ar
   116    32    33    2
   117   152   149    1
   118   173   172    1
   119    68    65    1
   120    41    38    1
   121    41    42    1
   122   151   150    2
   123   157   155   ar
   124    64    65    1
   125    38    39    1
   126   171   172    1
   127   171   170    1
   128   150   149    1
   129   150   159   am
   130   149   148    1
   131   166   167    1
   132    65    66    1
   133    39    40    2
   134   123   124    1
   135   160   159    1
   136   160   161    1
   137   160   163    1
   138   170   167    1
   139   141   142   ar
   140   141   139   ar
   141   167   168    1
   142   142   140   ar
   143   165   163    1
   144    66    67    2
   145   162   161    2
   146   126   125    2
   147   147   144    1
   148   163   164    1
   149   139   137   ar
   150   124   125    1
   151   124   127    1
   152   146   145    2
   153   140   138   ar
   154   127   128    1
   155   144   145    1
   156   144   143    1
   157   168   169    2
   158   137   138   ar
   159   137   136    1
   160   130   129    2
   161   136   133    1
   162   128   129    1
   163   132   133    1
   164   129   131   am
   165   133   134    1
   166   135   134    2
