@<TRIPOS>MOLECULE
tmp/1bmkA00.pdb
 151 143 0 0 0
SMALL
GASTEIGER

@<TRIPOS>ATOM
      1  N         -1.1360   10.0730   20.6450 N.3    27  VAL27      -0.1231
      2  CA        -2.0180    9.8950   21.7850 C.3    27  VAL27       0.1692
      3  C         -2.2750   11.2720   22.3870 C.2    27  VAL27       0.2593
      4  O         -2.4880   11.4210   23.5940 O.2    27  VAL27      -0.2718
      5  CB        -1.3750    8.9780   22.8430 C.3    27  VAL27       0.0266
      6  CG1       -0.2320    9.6920   23.5310 C.3    27  VAL27       0.0020
      7  CG2       -2.4170    8.5460   23.8560 C.3    27  VAL27       0.0020
      8  N         -2.2480   12.2820   21.5240 N.am   28  GLY28      -0.1942
      9  CA        -2.4700   13.6380   21.9700 C.3    28  GLY28       0.2014
     10  C         -1.2020   14.4540   21.8260 C.2    28  GLY28       0.2639
     11  O         -0.2870   14.0790   21.0860 O.2    28  GLY28      -0.2714
     12  N         -1.1550   15.5690   22.5420 N.am   29  SER29      -0.1949
     13  CA        -0.0120   16.4740   22.5130 C.3    29  SER29       0.1924
     14  C         -0.4300   17.7720   23.1780 C.2    29  SER29       0.2314
     15  O         -1.6120   17.9980   23.4250 O.2    29  SER29      -0.2863
     16  CB         0.4260   16.7430   21.0610 C.3    29  SER29       0.2116
     17  OG         0.1680   18.0790   20.6680 O.3    29  SER29      -0.2180
     18  N          3.1380   22.1140   25.1340 N.3    32  TYR32      -0.1241
     19  CA         4.3540   21.7740   25.8720 C.3    32  TYR32       0.1605
     20  C          5.0640   20.5240   25.3100 C.2    32  TYR32       0.2264
     21  O          6.2970   20.4600   25.2740 O.2    32  TYR32      -0.2867
     22  CB         4.0040   21.5480   27.3460 C.3    32  TYR32       0.0534
     23  CG         3.0060   20.4380   27.5200 C.ar   32  TYR32      -0.0201
     24  CD1        3.4190   19.1510   27.8720 C.ar   32  TYR32      -0.0009
     25  CD2        1.6620   20.6440   27.2280 C.ar   32  TYR32      -0.0009
     26  CE1        2.5190   18.1000   27.9160 C.ar   32  TYR32       0.0417
     27  CE2        0.7580   19.6020   27.2680 C.ar   32  TYR32       0.0417
     28  CZ         1.1920   18.3330   27.6060 C.ar   32  TYR32       0.1957
     29  OH         0.2990   17.2950   27.5990 O.3    32  TYR32      -0.2866
     30  N          2.9150   13.8980   22.1360 N.3    35  VAL35      -0.1245
     31  CA         2.9820   12.5540   22.7060 C.3    35  VAL35       0.1561
     32  C          2.5180   11.4050   21.8050 C.2    35  VAL35       0.2260
     33  O          1.4820   11.4840   21.1460 O.2    35  VAL35      -0.2867
     34  CB         2.2120   12.4990   24.0370 C.3    35  VAL35       0.0252
     35  CG1        2.2720   11.0810   24.6520 C.3    35  VAL35       0.0019
     36  CG2        2.7980   13.5310   24.9810 C.3    35  VAL35       0.0019
     37  N          4.4350    5.9600   27.0620 N.3    48  ALA48      -0.1245
     38  CA         4.0430    7.2370   26.5060 C.3    48  ALA48       0.1562
     39  C          5.3730    7.9310   26.2800 C.2    48  ALA48       0.2260
     40  O          6.1470    8.1130   27.2220 O.2    48  ALA48      -0.2867
     41  CB         3.1960    8.0250   27.5000 C.3    48  ALA48       0.0290
     42  N          7.1290   11.3680   24.9460 N.3    50  LYS50      -0.1245
     43  CA         6.8810   12.7830   24.6550 C.3    50  LYS50       0.1561
     44  C          8.1020   13.4520   24.0350 C.2    50  LYS50       0.2260
     45  O          9.2100   13.3620   24.5540 O.2    50  LYS50      -0.2867
     46  CB         6.5030   13.5430   25.9300 C.3    50  LYS50       0.0271
     47  CG         6.6760   15.0560   25.8130 C.3    50  LYS50       0.0035
     48  CD         5.5700   15.8100   26.5340 C.3    50  LYS50       0.0206
     49  CE         6.0690   16.3940   27.8450 C.3    50  LYS50       0.1093
     50  NZ         5.1430   16.1270   28.9810 N.3    50  LYS50      -0.1314
     51  N         12.1360   20.0520   34.4480 N.3    68  GLU68      -0.1245
     52  CA        11.2880   18.8810   34.2820 C.3    68  GLU68       0.1567
     53  C         12.0730   17.5770   34.2670 C.2    68  GLU68       0.2260
     54  O         11.6190   16.5680   34.7910 O.2    68  GLU68      -0.2867
     55  CB        10.4680   18.9800   33.0020 C.3    68  GLU68       0.0388
     56  CG         9.3150   17.9880   33.0020 C.3    68  GLU68       0.1160
     57  CD         8.6350   17.8540   31.6530 C.2    68  GLU68       0.3649
     58  OE1        8.9300   18.6720   30.7500 O.co2  68  GLU68      -0.2457
     59  OE2        7.8010   16.9280   31.4990 O.co2  68  GLU68      -0.2457
     60  N         11.5960   14.7180   37.0010 N.3    72  LEU72      -0.1245
     61  CA        11.2100   13.3810   36.5690 C.3    72  LEU72       0.1561
     62  C         12.2960   12.3460   36.8840 C.2    72  LEU72       0.2260
     63  O         11.9930   11.2030   37.2380 O.2    72  LEU72      -0.2867
     64  CB        10.8870   13.3870   35.0730 C.3    72  LEU72       0.0270
     65  CG         9.4100   13.4080   34.6560 C.3    72  LEU72       0.0019
     66  CD1        8.5620   14.0810   35.7090 C.3    72  LEU72       0.0001
     67  CD2        9.2770   14.1370   33.3410 C.3    72  LEU72       0.0001
     68  N          4.5820    9.7640   39.1560 N.3    81  ILE81      -0.1231
     69  CA         5.0270    9.4960   37.7820 C.3    81  ILE81       0.1692
     70  C          6.5380    9.3050   37.7060 C.2    81  ILE81       0.2593
     71  O          7.2960   10.1380   38.1970 O.2    81  ILE81      -0.2718
     72  CB         4.6550   10.6560   36.8220 C.3    81  ILE81       0.0266
     73  CG1        5.1210   10.3060   35.4000 C.3    81  ILE81       0.0019
     74  CG2        5.2730   11.9850   37.3260 C.3    81  ILE81       0.0020
     75  CD1        4.9950   11.4320   34.3920 C.3    81  ILE81       0.0001
     76  N          6.9730    8.2120   37.0850 N.am   82  GLY82      -0.1942
     77  CA         8.4010    7.9630   36.9580 C.3    82  GLY82       0.2014
     78  C          8.9490    8.1060   35.5410 C.2    82  GLY82       0.2638
     79  O          8.1950    8.1700   34.5680 O.2    82  GLY82      -0.2714
     80  N         10.2710    8.1520   35.4250 N.am   83  LEU83      -0.1977
     81  CA        10.9280    8.2690   34.1240 C.3    83  LEU83       0.1596
     82  C         11.4720    6.9040   33.7220 C.2    83  LEU83       0.2287
     83  O         12.4090    6.4060   34.3350 O.2    83  LEU83      -0.2864
     84  CB        12.0940    9.2620   34.2070 C.3    83  LEU83       0.0297
     85  CG        12.2440   10.3690   33.1660 C.3    83  LEU83       0.0022
     86  CD1       13.7260   10.5470   32.8560 C.3    83  LEU83       0.0001
     87  CD2       11.4510   10.0400   31.9150 C.3    83  LEU83       0.0001
     88  N         11.0160   12.0140   26.3090 N.3   101  LEU101     -0.1231
     89  CA        10.8140   11.4750   27.6540 C.3   101  LEU101      0.1693
     90  C          9.8680   10.3050   27.5680 C.2   101  LEU101      0.2592
     91  O          8.8570   10.3760   26.8740 O.2   101  LEU101     -0.2718
     92  CB        10.2070   12.5280   28.5860 C.3   101  LEU101      0.0284
     93  CG        10.9380   13.8630   28.6840 C.3   101  LEU101      0.0019
     94  CD1       10.0100   14.9060   29.2720 C.3   101  LEU101      0.0001
     95  CD2       12.1840   13.6780   29.5370 C.3   101  LEU101      0.0001
     96  N         10.1850    9.2400   28.2940 N.am  102  VAL102     -0.1966
     97  CA         9.3700    8.0390   28.2710 C.3   102  VAL102      0.1727
     98  C          8.8690    7.6620   29.6520 C.2   102  VAL102      0.2617
     99  O          9.6060    7.7290   30.6390 O.2   102  VAL102     -0.2715
    100  CB        10.1720    6.8340   27.6810 C.3   102  VAL102      0.0290
    101  CG1        9.2880    5.5870   27.6100 C.3   102  VAL102      0.0023
    102  CG2       10.7110    7.1940   26.3010 C.3   102  VAL102      0.0023
    103  N          7.6000    7.2780   29.7200 N.am  103  THR103     -0.1937
    104  CA         7.0090    6.8450   30.9760 C.3   103  THR103      0.2028
    105  C          5.9200    5.8490   30.6470 C.2   103  THR103      0.2642
    106  O          5.5740    5.6600   29.4710 O.2   103  THR103     -0.2714
    107  CB         6.3810    8.0060   31.7810 C.3   103  THR103      0.1808
    108  OG1        6.0110    7.5270   33.0820 O.3   103  THR103     -0.2208
    109  CG2        5.1390    8.5310   31.0910 C.3   103  THR103      0.0379
    110  N          5.3930    5.2110   31.6880 N.am  104  HIS104     -0.1959
    111  CA         4.3220    4.2430   31.5220 C.3   104  HIS104      0.1787
    112  C          3.1350    4.9360   30.8930 C.2   104  HIS104      0.2620
    113  O          2.7910    6.0530   31.2610 O.2   104  HIS104     -0.2715
    114  CB         3.9140    3.6710   32.8710 C.3   104  HIS104      0.0785
    115  CG         5.0080    2.9160   33.5550 C.ar  104  HIS104      0.0821
    116  ND1        5.8020    3.4800   34.5320 N.ar  104  HIS104     -0.2267
    117  CD2        5.4440    1.6450   33.3980 C.ar  104  HIS104      0.1154
    118  CE1        6.6820    2.5870   34.9480 C.ar  104  HIS104      0.1986
    119  NE2        6.4850    1.4650   34.2760 N.ar  104  HIS104     -0.2212
    120  N          2.5190    4.2790   29.9240 N.am  105  LEU105     -0.1963
    121  CA         1.3600    4.8500   29.2620 C.3   105  LEU105      0.1728
    122  C          0.1920    4.7770   30.2370 C.2   105  LEU105      0.2616
    123  O         -0.1010    3.7160   30.7870 O.2   105  LEU105     -0.2715
    124  CB         1.0470    4.0530   27.9970 C.3   105  LEU105      0.0311
    125  CG        -0.1150    4.4820   27.1070 C.3   105  LEU105      0.0022
    126  CD1        0.1070    5.8820   26.5540 C.3   105  LEU105      0.0001
    127  CD2       -0.2320    3.4690   25.9870 C.3   105  LEU105      0.0001
    128  N         -0.4650    5.9070   30.4690 N.am  106  MET106     -0.1977
    129  CA        -1.6000    5.9370   31.3850 C.3   106  MET106      0.1605
    130  C         -2.9130    6.0450   30.6040 C.2   106  MET106      0.2287
    131  O         -3.0540    6.8810   29.7020 O.2   106  MET106     -0.2864
    132  CB        -1.4670    7.1100   32.3760 C.3   106  MET106      0.0413
    133  CG        -0.0300    7.4750   32.7480 C.3   106  MET106      0.0598
    134  SD         0.6420    6.8420   34.3060 S.3   106  MET106     -0.1393
    135  CE        -0.3650    5.4020   34.5950 C.3   106  MET106      0.0692
    136  N          0.8230   12.9800   38.4860 N.3   164  LEU164     -0.1231
    137  CA         1.6690   13.4840   37.4200 C.3   164  LEU164      0.1693
    138  C          1.4400   14.9630   37.1720 C.2   164  LEU164      0.2592
    139  O          0.7960   15.6350   37.9690 O.2   164  LEU164     -0.2718
    140  CB         1.4650   12.6880   36.1200 C.3   164  LEU164      0.0284
    141  CG         0.1540   12.0890   35.6020 C.3   164  LEU164      0.0019
    142  CD1       -0.1060   10.7330   36.2410 C.3   164  LEU164      0.0001
    143  CD2       -0.9680   13.0470   35.8530 C.3   164  LEU164      0.0001
    144  N          2.0060   15.4730   36.0810 N.am  165  ASP165     -0.1974
    145  CA         1.8350   16.8710   35.6940 C.3   165  ASP165      0.1709
    146  C          2.2550   17.8460   36.7730 C.2   165  ASP165      0.2293
    147  O          1.5430   18.8190   37.0390 O.2   165  ASP165     -0.2864
    148  CB         0.3660   17.1390   35.3470 C.3   165  ASP165      0.1436
    149  CG         0.0920   17.0580   33.8640 C.2   165  ASP165      0.3671
    150  OD1       -1.0970   16.9320   33.4710 O.co2 165  ASP165     -0.2456
    151  OD2        1.0750   17.1200   33.0940 O.co2 165  ASP165     -0.2456
@<TRIPOS>BOND
     1     1     2    1
     2    17    16    1
     3    16    13    1
     4    11    10    2
     5    33    32    2
     6     8     9    1
     7     8     3   am
     8     2     3    1
     9     2     5    1
    10    32    31    1
    11    10     9    1
    12    10    12   am
    13    30    31    1
    14     3     4    2
    15    13    12    1
    16    13    14    1
    17    31    34    1
    18     5     6    1
    19     5     7    1
    20    14    15    2
    21    44    45    2
    22    44    43    1
    23    34    35    1
    24    34    36    1
    25    43    42    1
    26    43    46    1
    27    18    19    1
    28    21    20    2
    29    20    19    1
    30    47    46    1
    31    47    48    1
    32    19    22    1
    33   127   125    1
    34    39    38    1
    35    39    40    2
    36   102   100    1
    37    88    89    1
    38    38    37    1
    39    38    41    1
    40    48    49    1
    41   126   125    1
    42    91    90    2
    43   125   124    1
    44    25    27   ar
    45    25    23   ar
    46    27    28   ar
    47    22    23    1
    48    23    24   ar
    49    90    89    1
    50    90    96   am
    51    29    28    1
    52    28    26   ar
    53   101   100    1
    54    89    92    1
    55   100    97    1
    56    49    50    1
    57    24    26   ar
    58   124   121    1
    59    97    96    1
    60    97    98    1
    61    92    93    1
    62    93    94    1
    63    93    95    1
    64   121   120    1
    65   121   122    1
    66   106   105    2
    67    98   103   am
    68    98    99    2
    69   131   130    2
    70   103   104    1
    71   120   112   am
    72   122   128   am
    73   122   123    2
    74   128   129    1
    75   130   129    1
    76   105   104    1
    77   105   110   am
    78    58    57   ar
    79   112   113    2
    80   112   111    1
    81   104   107    1
    82   109   107    1
    83   129   132    1
    84    59    57   ar
    85   111   110    1
    86   111   114    1
    87    57    56    1
    88   107   108    1
    89    87    85    1
    90   132   133    1
    91   133   134    1
    92    86    85    1
    93   114   115    1
    94    56    55    1
    95    55    52    1
    96   151   149   ar
    97    85    84    1
    98    67    65    1
    99   117   115   ar
   100   117   119   ar
   101   150   149   ar
   102   115   116   ar
   103    82    81    1
   104    82    83    2
   105   149   148    1
   106    81    84    1
   107    81    80    1
   108    53    52    1
   109    53    54    2
   110   119   118   ar
   111    52    51    1
   112   134   135    1
   113    75    73    1
   114   116   118   ar
   115    79    78    2
   116    65    64    1
   117    65    66    1
   118    64    61    1
   119   148   145    1
   120    73    72    1
   121    80    78   am
   122    78    77    1
   123   141   143    1
   124   141   140    1
   125   141   142    1
   126   145   144    1
   127   145   146    1
   128   144   138   am
   129   140   137    1
   130    61    62    1
   131    61    60    1
   132   146   147    2
   133    72    74    1
   134    72    69    1
   135    62    63    2
   136    77    76    1
   137    76    70   am
   138   138   137    1
   139   138   139    2
   140   137   136    1
   141    70    69    1
   142    70    71    2
   143    69    68    1
