@<TRIPOS>MOLECULE
tmp/1bmmB01.pdb
 221 224 0 0 0
SMALL
GASTEIGER

@<TRIPOS>ATOM
      1  N         23.1030   46.8700   20.6130 N.3    43  HIS43      -0.1241
      2  CA        22.2480   46.1390   21.5520 C.3    43  HIS43       0.1621
      3  C         22.4220   44.6290   21.6270 C.2    43  HIS43       0.2264
      4  O         21.7500   43.9680   22.4070 O.2    43  HIS43      -0.2867
      5  CB        20.7530   46.5030   21.3520 C.3    43  HIS43       0.0745
      6  CG        20.0300   45.7220   20.2790 C.ar   43  HIS43       0.0817
      7  ND1       19.7420   46.2470   19.0330 N.ar   43  HIS43      -0.2268
      8  CD2       19.4090   44.5190   20.3230 C.ar   43  HIS43       0.1154
      9  CE1       18.9650   45.4100   18.3680 C.ar   43  HIS43       0.1986
     10  NE2       18.7480   44.3550   19.1270 N.ar   43  HIS43      -0.2212
     11  N         23.0320   45.7800   26.6270 N.3    47  TYR47      -0.1241
     12  CA        21.6680   46.1520   26.9490 C.3    47  TYR47       0.1605
     13  C         21.3620   45.8390   28.4070 C.2    47  TYR47       0.2264
     14  O         20.9770   44.7200   28.7340 O.2    47  TYR47      -0.2867
     15  CB        20.6920   45.4280   26.0130 C.3    47  TYR47       0.0534
     16  CG        19.2880   45.9790   26.0240 C.ar   47  TYR47      -0.0201
     17  CD1       19.0410   47.3570   25.8620 C.ar   47  TYR47      -0.0009
     18  CD2       18.1970   45.1340   26.2350 C.ar   47  TYR47      -0.0009
     19  CE1       17.7320   47.8820   25.9190 C.ar   47  TYR47       0.0417
     20  CE2       16.8720   45.6470   26.3000 C.ar   47  TYR47       0.0417
     21  CZ        16.6460   47.0220   26.1430 C.ar   47  TYR47       0.1957
     22  OH        15.3460   47.5030   26.2310 O.3    47  TYR47      -0.2866
     23  N         18.1060   44.0920   30.1750 N.3    50  TRP50      -0.1241
     24  CA        18.0180   42.6440   30.0290 C.3    50  TRP50       0.1605
     25  C         19.2580   41.9890   30.6210 C.2    50  TRP50       0.2264
     26  O         19.4530   40.7980   30.4830 O.2    50  TRP50      -0.2867
     27  CB        17.9260   42.2650   28.5560 C.3    50  TRP50       0.0550
     28  CG        16.5900   42.4220   27.9740 C.ar   50  TRP50       0.0003
     29  CD1       15.4800   42.9270   28.5800 C.ar   50  TRP50       0.0946
     30  CD2       16.1990   42.0810   26.6470 C.ar   50  TRP50       0.0152
     31  NE1       14.4170   42.9270   27.7050 N.ar   50  TRP50      -0.2442
     32  CE2       14.8380   42.4170   26.5100 C.ar   50  TRP50       0.0810
     33  CE3       16.8690   41.5260   25.5560 C.ar   50  TRP50       0.0012
     34  CZ2       14.1420   42.2220   25.3340 C.ar   50  TRP50       0.0191
     35  CZ3       16.1690   41.3280   24.3770 C.ar   50  TRP50       0.0001
     36  CH2       14.8210   41.6770   24.2770 C.ar   50  TRP50       0.0015
     37  N         20.4280   53.0540   25.0630 N.3    92  TRP92      -0.1227
     38  CA        19.5720   51.9170   25.3670 C.3    92  TRP92       0.1737
     39  C         18.4740   52.2790   26.3500 C.2    92  TRP92       0.2595
     40  O         17.5620   51.4810   26.6190 O.2    92  TRP92      -0.2718
     41  CB        20.4170   50.7830   25.9460 C.3    92  TRP92       0.0564
     42  CG        21.3430   51.2170   27.0550 C.ar   92  TRP92       0.0003
     43  CD1       22.6730   51.5090   26.9430 C.ar   92  TRP92       0.0946
     44  CD2       21.0110   51.3870   28.4490 C.ar   92  TRP92       0.0152
     45  NE1       23.1880   51.8450   28.1740 N.ar   92  TRP92      -0.2442
     46  CE2       22.1940   51.7790   29.1140 C.ar   92  TRP92       0.0810
     47  CE3       19.8310   51.2470   29.1940 C.ar   92  TRP92       0.0012
     48  CZ2       22.2330   52.0300   30.4870 C.ar   92  TRP92       0.0191
     49  CZ3       19.8710   51.5000   30.5610 C.ar   92  TRP92       0.0001
     50  CH2       21.0660   51.8890   31.1900 C.ar   92  TRP92       0.0015
     51  N         18.6000   53.4720   26.9260 N.am   93  ARG93      -0.1966
     52  CA        17.6480   53.9540   27.9230 C.3    93  ARG93       0.1729
     53  C         16.3920   54.4190   27.2560 C.2    93  ARG93       0.2616
     54  O         15.3080   54.0870   27.6910 O.2    93  ARG93      -0.2715
     55  CB        18.2080   55.1480   28.7130 C.3    93  ARG93       0.0348
     56  CG        19.5940   54.9750   29.3170 C.3    93  ARG93       0.0492
     57  CD        20.5120   56.1650   28.9940 C.3    93  ARG93       0.2205
     58  NE        20.0280   57.4360   29.5610 N.pl3  93  ARG93      -0.0865
     59  CZ        20.2110   58.6460   29.0220 C.cat  93  ARG93       0.5346
     60  NH1       20.8740   58.8160   27.8780 N.pl3  93  ARG93       0.1354
     61  NH2       19.7050   59.6950   29.6410 N.pl3  93  ARG93       0.1354
     62  N         16.5460   55.1460   26.1630 N.am   94  GLU94      -0.1963
     63  CA        15.3980   55.7240   25.4960 C.3    94  GLU94       0.1733
     64  C         14.9630   55.1950   24.1440 C.2    94  GLU94       0.2616
     65  O         13.9780   54.4720   24.0730 O.2    94  GLU94      -0.2715
     66  CB        15.5730   57.2450   25.4320 C.3    94  GLU94       0.0429
     67  CG        15.7610   57.8900   26.8150 C.3    94  GLU94       0.1163
     68  CD        16.4080   59.2650   26.7680 C.2    94  GLU94       0.3649
     69  OE1       17.6570   59.3330   26.7480 O.co2  94  GLU94      -0.2457
     70  OE2       15.6610   60.2690   26.7840 O.co2  94  GLU94      -0.2457
     71  N         15.6860   55.5210   23.0750 N.am   95  ASN95      -0.1958
     72  CA        15.2500   55.0950   21.7510 C.3    95  ASN95       0.1819
     73  C         16.1510   54.2250   20.8920 C.2    95  ASN95       0.2621
     74  O         15.8230   53.9480   19.7410 O.2    95  ASN95      -0.2715
     75  CB        14.8460   56.3260   20.9430 C.3    95  ASN95       0.1195
     76  CG        15.8920   57.4310   20.9910 C.2    95  ASN95       0.2630
     77  OD1       17.0760   57.1730   21.2040 O.2    95  ASN95      -0.2716
     78  ND2       15.4520   58.6700   20.8220 N.am   95  ASN95      -0.0877
     79  N         17.2700   53.7790   21.4410 N.am   96  LEU96      -0.1977
     80  CA        18.2330   52.9580   20.7010 C.3    96  LEU96       0.1596
     81  C         18.9880   53.7580   19.6260 C.2    96  LEU96       0.2287
     82  O         19.5200   53.2010   18.6620 O.2    96  LEU96      -0.2864
     83  CB        17.5930   51.6680   20.1550 C.3    96  LEU96       0.0297
     84  CG        17.4820   50.5270   21.1840 C.3    96  LEU96       0.0022
     85  CD1       16.7310   49.3180   20.6480 C.3    96  LEU96       0.0001
     86  CD2       18.8820   50.1010   21.6160 C.3    96  LEU96       0.0001
     87  N          7.3950   56.2920   19.8510 N.3   179  ILE179     -0.1245
     88  CA         8.8230   56.3200   20.1510 C.3   179  ILE179      0.1561
     89  C          9.5130   57.4160   19.3690 C.2   179  ILE179      0.2260
     90  O          9.1860   57.6690   18.2160 O.2   179  ILE179     -0.2867
     91  CB         9.4810   54.9170   19.8580 C.3   179  ILE179      0.0252
     92  CG1        9.0150   53.9160   20.9200 C.3   179  ILE179      0.0019
     93  CG2       11.0230   54.9930   19.8120 C.3   179  ILE179      0.0019
     94  CD1        9.3510   52.4690   20.6480 C.3   179  ILE179      0.0001
     95  N          8.9440   40.8620    7.3400 N.3   199  ASP199     -0.1225
     96  CA         9.6140   41.7030    8.3260 C.3   199  ASP199      0.1805
     97  C         10.7650   40.9490    8.9560 C.2   199  ASP199      0.2598
     98  O         11.0160   39.8110    8.6080 O.2   199  ASP199     -0.2718
     99  CB         8.5870   42.0800    9.4180 C.3   199  ASP199      0.1424
    100  CG         9.0220   43.2580   10.3150 C.2   199  ASP199      0.3668
    101  OD1        9.9900   43.9780    9.9820 O.co2 199  ASP199     -0.2456
    102  OD2        8.3520   43.4750   11.3640 O.co2 199  ASP199     -0.2456
    103  N         11.5450   41.6490    9.7710 N.am  200  ALA200     -0.1966
    104  CA        12.6380   41.0540   10.5280 C.3   200  ALA200      0.1728
    105  C         11.9040   40.7570   11.8310 C.2   200  ALA200      0.2616
    106  O         10.7060   41.0010   11.9170 O.2   200  ALA200     -0.2715
    107  CB        13.7520   42.0570   10.7660 C.3   200  ALA200      0.0334
    108  N         12.5950   40.2470   12.8420 N.am  201  CYS201     -0.1954
    109  CA        11.9450   39.9260   14.1160 C.3   201  CYS201      0.1843
    110  C         13.0310   39.6020   15.1250 C.2   201  CYS201      0.2625
    111  O         14.2210   39.7340   14.8190 O.2   201  CYS201     -0.2714
    112  CB        11.0010   38.7330   13.9370 C.3   201  CYS201      0.0997
    113  SG         9.8070   38.4660   15.2780 S.3   201  CYS201     -0.0797
    114  N         12.6420   39.2050   16.3260 N.am  202  GLU202     -0.1963
    115  CA        13.6200   38.8640   17.3560 C.3   202  GLU202      0.1733
    116  C         14.6290   37.8300   16.8370 C.2   202  GLU202      0.2616
    117  O         14.2560   36.8180   16.2380 O.2   202  GLU202     -0.2715
    118  CB        12.9250   38.3200   18.6190 C.3   202  GLU202      0.0429
    119  CG        12.2700   39.3570   19.5610 C.3   202  GLU202      0.1163
    120  CD        11.0010   40.0030   18.9930 C.2   202  GLU202      0.3649
    121  OE1       11.1400   40.9320   18.1680 O.co2 202  GLU202     -0.2457
    122  OE2        9.8690   39.6020   19.3790 O.co2 202  GLU202     -0.2457
    123  N         15.9080   38.1250   17.0310 N.am  203  GLY203     -0.1955
    124  CA        16.9570   37.2220   16.6060 C.3   203  GLY203      0.1869
    125  C         17.6190   37.6540   15.3280 C.2   203  GLY203      0.2309
    126  O         18.6800   37.1400   14.9830 O.2   203  GLY203     -0.2863
    127  N         18.4470   40.8450   14.7450 N.3   205  SER205     -0.1217
    128  CA        19.2270   42.0150   15.1340 C.3   205  SER205      0.1889
    129  C         20.7040   42.0650   14.7180 C.2   205  SER205      0.2288
    130  O         21.4400   41.0940   14.8630 O.2   205  SER205     -0.2866
    131  CB        19.1340   42.1780   16.6390 C.3   205  SER205      0.2089
    132  OG        17.7710   42.2390   17.0060 O.3   205  SER205     -0.2183
    133  N         19.5900   45.8830   11.3380 N.3   225  VAL225     -0.1231
    134  CA        18.3570   45.5890   12.0540 C.3   225  VAL225      0.1692
    135  C         18.5230   46.0420   13.5080 C.2   225  VAL225      0.2593
    136  O         19.3640   45.5110   14.2560 O.2   225  VAL225     -0.2718
    137  CB        18.0220   44.0820   11.9830 C.3   225  VAL225      0.0266
    138  CG1       16.6790   43.7800   12.7000 C.3   225  VAL225      0.0020
    139  CG2       17.9940   43.6340   10.5350 C.3   225  VAL225      0.0020
    140  N         17.7260   47.0390   13.8830 N.am  226  SER226     -0.1938
    141  CA        17.7610   47.6290   15.2210 C.3   226  SER226      0.2055
    142  C         16.5810   47.3740   16.1630 C.2   226  SER226      0.2643
    143  O         16.7700   46.7950   17.2150 O.2   226  SER226     -0.2714
    144  CB        18.0230   49.1240   15.1090 C.3   226  SER226      0.2130
    145  OG        17.7950   49.7480   16.3420 O.3   226  SER226     -0.2179
    146  N         15.3840   47.8300   15.8300 N.am  227  TRP227     -0.1959
    147  CA        14.2380   47.6060   16.7140 C.3   227  TRP227      0.1771
    148  C         12.8620   47.6480   16.0520 C.2   227  TRP227      0.2620
    149  O         12.7150   47.9630   14.8710 O.2   227  TRP227     -0.2715
    150  CB        14.2500   48.5870   17.9110 C.3   227  TRP227      0.0590
    151  CG        14.1210   50.0120   17.5090 C.ar  227  TRP227      0.0006
    152  CD1       15.1230   50.8290   17.0940 C.ar  227  TRP227      0.0946
    153  CD2       12.9060   50.7630   17.3820 C.ar  227  TRP227      0.0152
    154  NE1       14.6080   52.0320   16.7010 N.ar  227  TRP227     -0.2442
    155  CE2       13.2520   52.0220   16.8670 C.ar  227  TRP227      0.0810
    156  CE3       11.5620   50.4870   17.6450 C.ar  227  TRP227      0.0012
    157  CZ2       12.3150   53.0030   16.6020 C.ar  227  TRP227      0.0191
    158  CZ3       10.6190   51.4680   17.3750 C.ar  227  TRP227      0.0001
    159  CH2       11.0030   52.7130   16.8570 C.ar  227  TRP227      0.0015
    160  N         11.8500   47.3340   16.8510 N.am  228  GLY228     -0.1940
    161  CA        10.4790   47.3360   16.3790 C.3   228  GLY228      0.2014
    162  C          9.5350   47.1080   17.5470 C.2   228  GLY228      0.2639
    163  O          9.9470   47.0800   18.7200 O.2   228  GLY228     -0.2714
    164  N          8.2530   46.9950   17.2310 N.am  229  GLU229     -0.1963
    165  CA         7.2150   46.7400   18.2300 C.3   229  GLU229      0.1733
    166  C          6.4370   45.5970   17.6050 C.2   229  GLU229      0.2617
    167  O          5.6760   45.8010   16.6630 O.2   229  GLU229     -0.2715
    168  CB         6.3160   47.9680   18.3940 C.3   229  GLU229      0.0429
    169  CG         7.0040   49.2170   18.9170 C.3   229  GLU229      0.1163
    170  CD         6.1240   50.4380   18.7470 C.2   229  GLU229      0.3649
    171  OE1        5.9320   50.8530   17.5920 O.co2 229  GLU229     -0.2457
    172  OE2        5.6070   50.9790   19.7490 O.co2 229  GLU229     -0.2457
    173  N          6.6680   44.3900   18.0880 N.am  230  GLY230     -0.1940
    174  CA         6.0020   43.2550   17.4850 C.3   230  GLY230      0.2014
    175  C          6.7530   42.8760   16.2140 C.2   230  GLY230      0.2639
    176  O          7.8730   43.3460   16.0010 O.2   230  GLY230     -0.2714
    177  N          6.1840   41.9750   15.4120 N.am  231  CYS231     -0.1967
    178  CA         6.7940   41.5490   14.1470 C.3   231  CYS231      0.1712
    179  C          5.7040   41.3720   13.1250 C.2   231  CYS231      0.2296
    180  O          4.7010   40.7610   13.4150 O.2   231  CYS231     -0.2864
    181  CB         7.5450   40.2190   14.2810 C.3   231  CYS231      0.0983
    182  SG         8.8690   40.2380   15.4980 S.3   231  CYS231     -0.0798
    183  N          6.2340   49.5770   11.2400 N.3   237  TYR237     -0.1227
    184  CA         7.3990   49.2890   10.4160 C.3   237  TYR237      0.1736
    185  C          8.5930   48.8780   11.2790 C.2   237  TYR237      0.2596
    186  O          8.5600   48.9400   12.5200 O.2   237  TYR237     -0.2718
    187  CB         7.7660   50.4990    9.5590 C.3   237  TYR237      0.0548
    188  CG         6.5880   51.0390    8.8150 C.ar  237  TYR237     -0.0200
    189  CD1        5.7280   51.9490    9.4200 C.ar  237  TYR237     -0.0009
    190  CD2        6.2700   50.5780    7.5300 C.ar  237  TYR237     -0.0009
    191  CE1        4.5640   52.3850    8.7710 C.ar  237  TYR237      0.0417
    192  CE2        5.1080   51.0080    6.8720 C.ar  237  TYR237      0.0417
    193  CZ         4.2640   51.9110    7.5080 C.ar  237  TYR237      0.1957
    194  OH         3.1170   52.3400    6.8950 O.3   237  TYR237     -0.2866
    195  N          9.6510   48.4420   10.6180 N.am  238  GLY238     -0.1942
    196  CA        10.8120   48.0430   11.3540 C.3   238  GLY238      0.2014
    197  C         11.8650   49.0720   11.1290 C.2   238  GLY238      0.2639
    198  O         12.0900   49.4930    9.9940 O.2   238  GLY238     -0.2714
    199  N         12.5070   49.4680   12.2170 N.am  239  PHE239     -0.1959
    200  CA        13.5700   50.4510   12.1670 C.3   239  PHE239      0.1771
    201  C         14.9520   49.8500   12.0890 C.2   239  PHE239      0.2619
    202  O         15.2430   48.8400   12.7160 O.2   239  PHE239     -0.2715
    203  CB        13.4480   51.4210   13.3210 C.3   239  PHE239      0.0574
    204  CG        12.2050   52.2170   13.2640 C.ar  239  PHE239     -0.0200
    205  CD1       10.9740   51.5900   13.3220 C.ar  239  PHE239     -0.0042
    206  CD2       12.2550   53.5770   13.0830 C.ar  239  PHE239     -0.0042
    207  CE1        9.8040   52.3270   13.1930 C.ar  239  PHE239     -0.0003
    208  CE2       11.1130   54.3120   12.9540 C.ar  239  PHE239     -0.0003
    209  CZ         9.8890   53.7010   13.0080 C.ar  239  PHE239     -0.0000
    210  N         15.7750   50.4550   11.2480 N.am  240  TYR240     -0.1974
    211  CA        17.1230   50.0030   11.0090 C.3   240  TYR240      0.1639
    212  C         18.0540   51.1430   11.3240 C.2   240  TYR240      0.2290
    213  O         17.6430   52.2940   11.2760 O.2   240  TYR240     -0.2864
    214  CB        17.2580   49.6450    9.5390 C.3   240  TYR240      0.0560
    215  CG        16.3650   48.5130    9.1370 C.ar  240  TYR240     -0.0198
    216  CD1       14.9890   48.6910    9.0400 C.ar  240  TYR240     -0.0009
    217  CD2       16.8870   47.2390    8.9330 C.ar  240  TYR240     -0.0009
    218  CE1       14.1500   47.6290    8.7600 C.ar  240  TYR240      0.0417
    219  CE2       16.0570   46.1600    8.6560 C.ar  240  TYR240      0.0417
    220  CZ        14.6860   46.3600    8.5750 C.ar  240  TYR240      0.1957
    221  OH        13.8520   45.2850    8.3730 O.3   240  TYR240     -0.2866
@<TRIPOS>BOND
     1   192   193   ar
     2   192   190   ar
     3   194   193    1
     4    95    96    1
     5   193   191   ar
     6   190   188   ar
     7    96    97    1
     8    96    99    1
     9   221   220    1
    10   220   219   ar
    11   220   218   ar
    12    98    97    2
    13   219   217   ar
    14   218   216   ar
    15   191   189   ar
    16   188   189   ar
    17   188   187    1
    18   217   215   ar
    19    97   103   am
    20   216   215   ar
    21   215   214    1
    22    99   100    1
    23   214   211    1
    24   187   184    1
    25   103   104    1
    26   101   100   ar
    27   198   197    2
    28   100   102   ar
    29   184   183    1
    30   184   185    1
    31   104   107    1
    32   104   105    1
    33   139   137    1
    34   195   185   am
    35   195   196    1
    36   211   210    1
    37   211   212    1
    38   197   196    1
    39   197   199   am
    40   210   201   am
    41   213   212    2
    42   185   186    2
    43   133   134    1
    44   105   106    2
    45   105   108   am
    46   137   134    1
    47   137   138    1
    48   134   135    1
    49   201   200    1
    50   201   202    2
    51   200   199    1
    52   200   203    1
    53   108   109    1
    54   208   209   ar
    55   208   206   ar
    56   209   207   ar
    57   206   204   ar
    58   179   180    2
    59   179   178    1
    60   207   205   ar
    61   204   203    1
    62   204   205   ar
    63   135   140   am
    64   135   136    2
    65   140   141    1
    66   112   109    1
    67   112   113    1
    68   109   110    1
    69   178   181    1
    70   178   177    1
    71   181   182    1
    72   129   130    2
    73   129   128    1
    74   127   128    1
    75   111   110    2
    76   149   148    2
    77   126   125    2
    78   144   141    1
    79   144   145    1
    80   110   114   am
    81   128   131    1
    82   141   142    1
    83   113   182    1
    84   125   124    1
    85   177   175   am
    86   146   142   am
    87   146   147    1
    88   176   175    2
    89   148   147    1
    90   148   160   am
    91   142   143    2
    92   175   174    1
    93   117   116    2
    94   114   115    1
    95   161   160    1
    96   161   162    1
    97   157   159   ar
    98   157   155   ar
    99   124   123    1
   100   131   132    1
   101   167   166    2
   102   154   155   ar
   103   154   152   ar
   104   147   150    1
   105   116   123   am
   106   116   115    1
   107   159   158   ar
   108   155   153   ar
   109   152   151   ar
   110   164   162   am
   111   164   165    1
   112   115   118    1
   113   158   156   ar
   114   153   151   ar
   115   153   156   ar
   116   174   173    1
   117   151   150    1
   118   162   163    2
   119   171   170   ar
   120   166   173   am
   121   166   165    1
   122   121   120   ar
   123    90    89    2
   124   165   168    1
   125     9     7   ar
   126     9    10   ar
   127   168   169    1
   128   118   119    1
   129    82    81    2
   130   170   169    1
   131   170   172   ar
   132   120   122   ar
   133   120   119    1
   134     7     6   ar
   135    10     8   ar
   136    89    88    1
   137    81    80    1
   138    74    73    2
   139    93    91    1
   140    87    88    1
   141    91    88    1
   142    91    92    1
   143    83    80    1
   144    83    84    1
   145     6     8   ar
   146     6     5    1
   147     1     2    1
   148    94    92    1
   149    85    84    1
   150    80    79    1
   151    78    76   am
   152    73    79   am
   153    73    72    1
   154    75    76    1
   155    75    72    1
   156    76    77    2
   157    84    86    1
   158     5     2    1
   159     2     3    1
   160     3     4    2
   161    72    71    1
   162    71    64   am
   163    65    64    2
   164    64    63    1
   165    36    35   ar
   166    36    34   ar
   167    35    33   ar
   168    37    38    1
   169    34    32   ar
   170    38    41    1
   171    38    39    1
   172    66    63    1
   173    66    67    1
   174    63    62    1
   175    33    30   ar
   176    17    19   ar
   177    17    16   ar
   178    19    21   ar
   179    41    42    1
   180    15    16    1
   181    15    12    1
   182    16    18   ar
   183    21    22    1
   184    21    20   ar
   185    62    53   am
   186    18    20   ar
   187    39    40    2
   188    39    51   am
   189    32    30   ar
   190    32    31   ar
   191    11    12    1
   192    30    28   ar
   193    69    68   ar
   194    68    70   ar
   195    68    67    1
   196    51    52    1
   197    43    42   ar
   198    43    45   ar
   199    12    13    1
   200    42    44   ar
   201    53    54    2
   202    53    52    1
   203    31    29   ar
   204    60    59    1
   205    52    55    1
   206    28    27    1
   207    28    29   ar
   208    45    46   ar
   209    13    14    2
   210    44    46   ar
   211    44    47   ar
   212    27    24    1
   213    55    56    1
   214    57    56    1
   215    57    58    1
   216    59    58    2
   217    59    61    1
   218    46    48   ar
   219    47    49   ar
   220    24    23    1
   221    24    25    1
   222    26    25    2
   223    48    50   ar
   224    49    50   ar
