@<TRIPOS>MOLECULE
tmp/1bmnB01.pdb
 190 190 0 0 0
SMALL
GASTEIGER

@<TRIPOS>ATOM
      1  N         56.7020   29.7160   18.3780 N.3    43  HIS43      -0.1241
      2  CA        57.4760   29.3590   19.5910 C.3    43  HIS43       0.1621
      3  C         58.9650   29.4370   19.3980 C.2    43  HIS43       0.2264
      4  O         59.7150   29.1450   20.3110 O.2    43  HIS43      -0.2867
      5  CB        57.1060   27.9600   20.1370 C.3    43  HIS43       0.0745
      6  CG        57.6400   26.8220   19.3170 C.ar   43  HIS43       0.0817
      7  ND1       58.7910   26.1410   19.6470 N.ar   43  HIS43      -0.2268
      8  CD2       57.1990   26.2710   18.1610 C.ar   43  HIS43       0.1154
      9  CE1       59.0360   25.2220   18.7290 C.ar   43  HIS43       0.1986
     10  NE2       58.0850   25.2810   17.8150 N.ar   43  HIS43      -0.2212
     11  N         58.2670   32.1870   23.7110 N.3    47  TYR47      -0.1241
     12  CA        57.8550   31.1090   24.5900 C.3    47  TYR47       0.1605
     13  C         58.0960   31.4760   26.0600 C.2    47  TYR47       0.2264
     14  O         59.0930   31.0600   26.6800 O.2    47  TYR47      -0.2867
     15  CB        58.5440   29.8000   24.2340 C.3    47  TYR47       0.0534
     16  CG        57.8700   28.6170   24.8550 C.ar   47  TYR47      -0.0201
     17  CD1       56.5110   28.3640   24.6250 C.ar   47  TYR47      -0.0009
     18  CD2       58.5660   27.7610   25.6870 C.ar   47  TYR47      -0.0009
     19  CE1       55.8700   27.2880   25.2140 C.ar   47  TYR47       0.0417
     20  CE2       57.9180   26.6640   26.2900 C.ar   47  TYR47       0.0417
     21  CZ        56.5730   26.4440   26.0450 C.ar   47  TYR47       0.1957
     22  OH        55.9460   25.3870   26.6550 O.3    47  TYR47      -0.2866
     23  N         59.6430   29.3770   29.0130 N.3    50  TRP50      -0.1241
     24  CA        61.0950   29.1490   29.0370 C.3    50  TRP50       0.1605
     25  C         61.8010   30.4760   28.8570 C.2    50  TRP50       0.2264
     26  O         62.9510   30.5290   28.4530 O.2    50  TRP50      -0.2867
     27  CB        61.5470   28.1990   27.9190 C.3    50  TRP50       0.0550
     28  CG        61.0460   26.8190   28.0700 C.ar   50  TRP50       0.0003
     29  CD1       60.2620   26.3480   29.0670 C.ar   50  TRP50       0.0946
     30  CD2       61.2310   25.7390   27.1580 C.ar   50  TRP50       0.0152
     31  NE1       59.9310   25.0450   28.8360 N.ar   50  TRP50      -0.2442
     32  CE2       60.5150   24.6410   27.6650 C.ar   50  TRP50       0.0810
     33  CE3       61.9290   25.5940   25.9570 C.ar   50  TRP50       0.0012
     34  CZ2       60.4700   23.4040   27.0140 C.ar   50  TRP50       0.0191
     35  CZ3       61.8850   24.3600   25.3060 C.ar   50  TRP50       0.0001
     36  CH2       61.1580   23.2830   25.8400 C.ar   50  TRP50       0.0015
     37  N         61.7250   32.5500   26.6130 N.3    52  LYS52      -0.1245
     38  CA        62.2370   32.7190   25.2750 C.3    52  LYS52       0.1561
     39  C         61.5290   33.9180   24.6520 C.2    52  LYS52       0.2260
     40  O         60.2930   33.9930   24.6570 O.2    52  LYS52      -0.2867
     41  CB        61.9890   31.4560   24.4590 C.3    52  LYS52       0.0271
     42  CG        62.4040   31.6310   23.0340 C.3    52  LYS52       0.0035
     43  CD        61.9010   30.5290   22.1990 C.3    52  LYS52       0.0206
     44  CE        62.5970   29.2550   22.4990 C.3    52  LYS52       0.1093
     45  NZ        62.1090   28.2300   21.5220 N.3    52  LYS52      -0.1314
     46  N         50.5330   29.8410   23.4220 N.3    92  TRP92      -0.1241
     47  CA        51.7090   29.2920   24.0430 C.3    92  TRP92       0.1605
     48  C         51.2860   28.7070   25.3870 C.2    92  TRP92       0.2264
     49  O         51.9030   27.7890   25.9020 O.2    92  TRP92      -0.2867
     50  CB        52.7760   30.3730   24.2230 C.3    92  TRP92       0.0550
     51  CG        52.4020   31.5900   25.0680 C.ar   92  TRP92       0.0003
     52  CD1       52.1580   32.8670   24.6120 C.ar   92  TRP92       0.0946
     53  CD2       52.3310   31.6640   26.5010 C.ar   92  TRP92       0.0152
     54  NE1       51.9470   33.7200   25.6680 N.ar   92  TRP92      -0.2442
     55  CE2       52.0490   33.0110   26.8390 C.ar   92  TRP92       0.0810
     56  CE3       52.4900   30.7250   27.5340 C.ar   92  TRP92       0.0012
     57  CZ2       51.9230   33.4410   28.1690 C.ar   92  TRP92       0.0191
     58  CZ3       52.3690   31.1520   28.8580 C.ar   92  TRP92       0.0001
     59  CH2       52.0880   32.5020   29.1600 C.ar   92  TRP92       0.0015
     60  N         48.6390   26.6880   26.4250 N.3    94  GLU94      -0.1231
     61  CA        48.2120   25.3260   26.6380 C.3    94  GLU94       0.1699
     62  C         48.5130   24.2910   25.5700 C.2    94  GLU94       0.2592
     63  O         48.9130   23.1780   25.8980 O.2    94  GLU94      -0.2718
     64  CB        46.7230   25.3110   26.9570 C.3    94  GLU94       0.0402
     65  CG        45.8640   25.9080   25.8630 C.3    94  GLU94       0.1161
     66  CD        44.4060   25.5210   25.9840 C.2    94  GLU94       0.3649
     67  OE1       44.0870   24.3320   25.7260 O.co2  94  GLU94      -0.2457
     68  OE2       43.5840   26.4060   26.3260 O.co2  94  GLU94      -0.2457
     69  N         48.3070   24.6170   24.2990 N.am   95  ASN95      -0.1960
     70  CA        48.5620   23.6190   23.2550 C.3    95  ASN95       0.1819
     71  C         49.3800   24.0700   22.0220 C.2    95  ASN95       0.2621
     72  O         49.5400   23.2880   21.0730 O.2    95  ASN95      -0.2715
     73  CB        47.2240   22.9820   22.8150 C.3    95  ASN95       0.1195
     74  CG        46.1950   24.0110   22.3590 C.2    95  ASN95       0.2630
     75  OD1       46.3910   25.2220   22.5050 O.2    95  ASN95      -0.2716
     76  ND2       45.0880   23.5320   21.8100 N.am   95  ASN95      -0.0877
     77  N         49.9590   25.2790   22.0760 N.am   96  LEU96      -0.1977
     78  CA        50.7060   25.8670   20.9490 C.3    96  LEU96       0.1596
     79  C         49.7990   26.0400   19.7410 C.2    96  LEU96       0.2287
     80  O         50.2410   25.9260   18.6040 O.2    96  LEU96      -0.2864
     81  CB        51.9080   25.0150   20.5280 C.3    96  LEU96       0.0297
     82  CG        53.2240   25.1580   21.2840 C.3    96  LEU96       0.0022
     83  CD1       54.2980   24.3810   20.5320 C.3    96  LEU96       0.0001
     84  CD2       53.5930   26.6300   21.4490 C.3    96  LEU96       0.0001
     85  N         66.3620   14.2430   25.5900 N.3   148  TRP148     -0.1241
     86  CA        65.8660   13.7460   26.8920 C.3   148  TRP148      0.1605
     87  C         66.7650   13.5440   28.1220 C.2   148  TRP148      0.2264
     88  O         66.3060   13.7140   29.2530 O.2   148  TRP148     -0.2867
     89  CB        64.9920   12.5080   26.6890 C.3   148  TRP148      0.0550
     90  CG        64.1130   12.1790   27.8710 C.ar  148  TRP148      0.0003
     91  CD1       64.4180   11.3580   28.9230 C.ar  148  TRP148      0.0946
     92  CD2       62.7650   12.6150   28.0840 C.ar  148  TRP148      0.0152
     93  NE1       63.3400   11.2470   29.7680 N.ar  148  TRP148     -0.2442
     94  CE2       62.3110   12.0060   29.2780 C.ar  148  TRP148      0.0810
     95  CE3       61.8920   13.4540   27.3800 C.ar  148  TRP148      0.0012
     96  CZ2       61.0200   12.2090   29.7820 C.ar  148  TRP148      0.0191
     97  CZ3       60.6040   13.6550   27.8840 C.ar  148  TRP148      0.0001
     98  CH2       60.1840   13.0320   29.0740 C.ar  148  TRP148      0.0015
     99  N         47.6480   16.2420   25.0440 N.3   179  ILE179     -0.1245
    100  CA        47.4850   17.6440   24.6550 C.3   179  ILE179      0.1561
    101  C         46.2250   17.6930   23.8230 C.2   179  ILE179      0.2260
    102  O         45.8300   16.6810   23.2250 O.2   179  ILE179     -0.2867
    103  CB        48.6870   18.1720   23.8050 C.3   179  ILE179      0.0252
    104  CG1       49.9060   18.4140   24.6950 C.3   179  ILE179      0.0019
    105  CG2       48.3410   19.5030   23.1320 C.3   179  ILE179      0.0019
    106  CD1       50.3530   17.2200   25.4930 C.3   179  ILE179      0.0001
    107  N         61.4710   11.2150   12.5300 N.3   199  ASP199     -0.1225
    108  CA        60.7310   12.2850   13.1660 C.3   199  ASP199      0.1805
    109  C         61.5950   13.5270   13.2370 C.2   199  ASP199      0.2598
    110  O         62.8190   13.4210   13.2110 O.2   199  ASP199     -0.2718
    111  CB        60.3850   11.8480   14.5940 C.3   199  ASP199      0.1424
    112  CG        59.3230   12.7390   15.2790 C.2   199  ASP199      0.3668
    113  OD1       58.6050   13.5370   14.6020 O.co2 199  ASP199     -0.2456
    114  OD2       59.1910   12.6050   16.5260 O.co2 199  ASP199     -0.2456
    115  N         60.9760   14.7040   13.3080 N.am  200  ALA200     -0.1966
    116  CA        61.7250   15.9470   13.4790 C.3   200  ALA200      0.1728
    117  C         62.1710   15.8670   14.9410 C.2   200  ALA200      0.2616
    118  O         61.6640   15.0420   15.7060 O.2   200  ALA200     -0.2715
    119  CB        60.8430   17.1550   13.2640 C.3   200  ALA200      0.0334
    120  N         63.1330   16.6880   15.3280 N.am  201  CYS201     -0.1954
    121  CA        63.6160   16.6640   16.6910 C.3   201  CYS201      0.1843
    122  C         64.0380   18.0780   17.0380 C.2   201  CYS201      0.2625
    123  O         63.8280   18.9960   16.2410 O.2   201  CYS201     -0.2714
    124  CB        64.7790   15.6810   16.8360 C.3   201  CYS201      0.0997
    125  SG        65.0450   15.1300   18.5550 S.3   201  CYS201     -0.0797
    126  N         64.6490   18.2490   18.2070 N.am  202  GLU202     -0.1977
    127  CA        65.0910   19.5560   18.6770 C.3   202  GLU202      0.1602
    128  C         66.0420   20.2220   17.6880 C.2   202  GLU202      0.2287
    129  O         67.0260   19.6170   17.2590 O.2   202  GLU202     -0.2864
    130  CB        65.7520   19.4160   20.0470 C.3   202  GLU202      0.0415
    131  CG        64.7870   18.9360   21.1620 C.3   202  GLU202      0.1163
    132  CD        64.6640   17.4070   21.3030 C.2   202  GLU202      0.3649
    133  OE1       65.4670   16.6420   20.7110 O.co2 202  GLU202     -0.2457
    134  OE2       63.7580   16.9740   22.0480 O.co2 202  GLU202     -0.2457
    135  N         62.3540   22.9260   14.8010 N.3   205  SER205     -0.1217
    136  CA        61.1420   23.7260   15.0060 C.3   205  SER205      0.1889
    137  C         61.0840   24.7900   13.9390 C.2   205  SER205      0.2288
    138  O         62.1100   25.3160   13.5570 O.2   205  SER205     -0.2866
    139  CB        61.1760   24.4130   16.3640 C.3   205  SER205      0.2089
    140  OG        61.8910   23.6350   17.3000 O.3   205  SER205     -0.2183
    141  N         57.1090   22.6890   11.5270 N.3   225  VAL225     -0.1231
    142  CA        57.4120   21.8680   12.7140 C.3   225  VAL225      0.1692
    143  C         57.0010   22.6530   13.9680 C.2   225  VAL225      0.2593
    144  O         57.3850   23.8180   14.1380 O.2   225  VAL225     -0.2718
    145  CB        58.9210   21.4770   12.7480 C.3   225  VAL225      0.0266
    146  CG1       59.2470   20.5850   13.9530 C.3   225  VAL225      0.0020
    147  CG2       59.2960   20.7610   11.4540 C.3   225  VAL225      0.0020
    148  N         56.1750   22.0260   14.8040 N.am  226  SER226     -0.1938
    149  CA        55.6490   22.6510   16.0150 C.3   226  SER226      0.2055
    150  C         55.9950   21.9830   17.3270 C.2   226  SER226      0.2643
    151  O         56.6710   22.5790   18.1770 O.2   226  SER226     -0.2714
    152  CB        54.1250   22.7720   15.9400 C.3   226  SER226      0.2130
    153  OG        53.7510   23.9430   15.2590 O.3   226  SER226     -0.2179
    154  N         55.5060   20.7680   17.5220 N.am  227  TRP227     -0.1959
    155  CA        55.7730   20.1030   18.7700 C.3   227  TRP227      0.1771
    156  C         55.7480   18.6140   18.6310 C.2   227  TRP227      0.2620
    157  O         55.2300   18.0830   17.6340 O.2   227  TRP227     -0.2715
    158  CB        54.7950   20.5660   19.8590 C.3   227  TRP227      0.0590
    159  CG        53.3510   20.2390   19.6150 C.ar  227  TRP227      0.0006
    160  CD1       52.4490   20.9620   18.8840 C.ar  227  TRP227      0.0946
    161  CD2       52.6290   19.1200   20.1470 C.ar  227  TRP227      0.0152
    162  NE1       51.2110   20.3630   18.9300 N.ar  227  TRP227     -0.2442
    163  CE2       51.2950   19.2320   19.7020 C.ar  227  TRP227      0.0810
    164  CE3       52.9820   18.0410   20.9620 C.ar  227  TRP227      0.0012
    165  CZ2       50.3140   18.3070   20.0500 C.ar  227  TRP227      0.0191
    166  CZ3       52.0180   17.1270   21.3020 C.ar  227  TRP227      0.0001
    167  CH2       50.6930   17.2640   20.8500 C.ar  227  TRP227      0.0015
    168  N         56.3950   17.9650   19.6030 N.am  228  GLY228     -0.1940
    169  CA        56.4920   16.5270   19.6590 C.3   228  GLY228      0.2014
    170  C         56.9010   16.0890   21.0510 C.2   228  GLY228      0.2639
    171  O         57.4120   16.8910   21.8490 O.2   228  GLY228     -0.2714
    172  N         56.6510   14.8100   21.3380 N.am  229  GLU229     -0.1963
    173  CA        56.9740   14.1670   22.6120 C.3   229  GLU229      0.1733
    174  C         58.0790   13.1760   22.3300 C.2   229  GLU229      0.2617
    175  O         57.8420   12.0600   21.8460 O.2   229  GLU229     -0.2715
    176  CB        55.7460   13.4520   23.1520 C.3   229  GLU229      0.0429
    177  CG        54.6100   14.4140   23.4370 C.3   229  GLU229      0.1163
    178  CD        53.2600   13.8040   23.1840 C.2   229  GLU229      0.3649
    179  OE1       52.9370   13.5660   21.9960 O.co2 229  GLU229     -0.2457
    180  OE2       52.5280   13.5800   24.1760 O.co2 229  GLU229     -0.2457
    181  N         59.2930   13.6130   22.6270 N.am  230  GLY230     -0.1940
    182  CA        60.4680   12.8180   22.3580 C.3   230  GLY230      0.2014
    183  C         60.7650   13.0520   20.8910 C.2   230  GLY230      0.2639
    184  O         60.4370   14.1070   20.3420 O.2   230  GLY230     -0.2714
    185  N         61.3870   12.0760   20.2510 N.am  231  CYS231     -0.1967
    186  CA        61.6850   12.1600   18.8340 C.3   231  CYS231      0.1712
    187  C         61.7070   10.7140   18.3630 C.2   231  CYS231      0.2296
    188  O         62.2760    9.8600   19.0410 O.2   231  CYS231     -0.2864
    189  CB        63.0470   12.8330   18.5990 C.3   231  CYS231      0.0983
    190  SG        63.1950   14.5580   19.1760 S.3   231  CYS231     -0.0798
@<TRIPOS>BOND
     1   147   145    1
     2   141   142    1
     3   107   108    1
     4   142   145    1
     5   142   143    1
     6   145   146    1
     7   108   109    1
     8   108   111    1
     9   110   109    2
    10   109   115   am
    11   119   116    1
    12   115   116    1
    13   116   117    1
    14   138   137    2
    15   137   136    1
    16   143   144    2
    17   143   148   am
    18   111   112    1
    19   113   112   ar
    20   135   136    1
    21   148   149    1
    22   117   120   am
    23   117   118    2
    24   136   139    1
    25   153   152    1
    26   112   114   ar
    27   120   121    1
    28   152   149    1
    29   149   150    1
    30   123   122    2
    31   139   140    1
    32   121   124    1
    33   121   122    1
    34   124   125    1
    35   122   126   am
    36   129   128    2
    37   150   154   am
    38   150   151    2
    39   154   155    1
    40   157   156    2
    41   128   127    1
    42    10     8   ar
    43    10     9   ar
    44     8     6   ar
    45   126   127    1
    46   187   186    1
    47   187   188    2
    48     1     2    1
    49   125   190    1
    50   189   186    1
    51   189   190    1
    52    80    79    2
    53   156   155    1
    54   156   168   am
    55   127   130    1
    56     9     7   ar
    57   155   158    1
    58   186   185    1
    59   160   162   ar
    60   160   159   ar
    61   162   163   ar
    62     6     7   ar
    63     6     5    1
    64     3     2    1
    65     3     4    2
    66     2     5    1
    67   168   169    1
    68   159   158    1
    69   159   161   ar
    70   169   170    1
    71   163   165   ar
    72   163   161   ar
    73    79    78    1
    74   130   131    1
    75   165   167   ar
    76   161   164   ar
    77   185   183   am
    78   184   183    2
    79    81    78    1
    80    81    82    1
    81    83    82    1
    82   133   132   ar
    83   167   166   ar
    84   183   182    1
    85    78    77    1
    86   164   166   ar
    87   170   172   am
    88   170   171    2
    89    72    71    2
    90   131   132    1
    91    82    84    1
    92   132   134   ar
    93   172   173    1
    94    45    44    1
    95    76    74   am
    96   175   174    2
    97   179   178   ar
    98    71    77   am
    99    71    70    1
   100    43    44    1
   101    43    42    1
   102   174   173    1
   103   174   181   am
   104   182   181    1
   105    74    75    2
   106    74    73    1
   107   173   176    1
   108    73    70    1
   109    42    41    1
   110   105   103    1
   111   176   177    1
   112   178   177    1
   113   178   180   ar
   114   102   101    2
   115    70    69    1
   116    46    47    1
   117    11    12    1
   118   103   100    1
   119   103   104    1
   120   101   100    1
   121    47    50    1
   122    47    48    1
   123    50    51    1
   124    15    12    1
   125    15    16    1
   126    69    62   am
   127    41    38    1
   128    12    13    1
   129    52    51   ar
   130    52    54   ar
   131    17    16   ar
   132    17    19   ar
   133    39    40    2
   134    39    38    1
   135   100    99    1
   136   104   106    1
   137    16    18   ar
   138    51    53   ar
   139    19    21   ar
   140    38    37    1
   141    35    36   ar
   142    35    33   ar
   143    48    49    2
   144    62    63    2
   145    62    61    1
   146    85    86    1
   147    54    55   ar
   148    18    20   ar
   149    67    66   ar
   150    36    34   ar
   151    65    66    1
   152    65    64    1
   153    33    30   ar
   154    66    68   ar
   155    21    20   ar
   156    21    22    1
   157    13    14    2
   158    60    61    1
   159    53    55   ar
   160    53    56   ar
   161    61    64    1
   162    89    86    1
   163    89    90    1
   164    55    57   ar
   165    86    87    1
   166    34    32   ar
   167    30    32   ar
   168    30    28   ar
   169    95    97   ar
   170    95    92   ar
   171    56    58   ar
   172    32    31   ar
   173    90    92   ar
   174    90    91   ar
   175    97    98   ar
   176    27    28    1
   177    27    24    1
   178    28    29   ar
   179    92    94   ar
   180    87    88    2
   181    57    59   ar
   182    26    25    2
   183    31    29   ar
   184    25    24    1
   185    58    59   ar
   186    91    93   ar
   187    23    24    1
   188    98    96   ar
   189    94    93   ar
   190    94    96   ar
