@<TRIPOS>MOLECULE
tmp/1bmnB00.pdb
 168 159 0 0 0
SMALL
GASTEIGER

@<TRIPOS>ATOM
      1  N         67.5570   29.0610    7.7240 N.3    17  MET17      -0.1245
      2  CA        68.0910   28.7960    9.0520 C.3    17  MET17       0.1570
      3  C         67.8500   30.0560    9.9000 C.2    17  MET17       0.2261
      4  O         67.8920   31.1820    9.3910 O.2    17  MET17      -0.2867
      5  CB        69.5990   28.4970    8.9790 C.3    17  MET17       0.0387
      6  CG        70.2050   28.1230   10.3410 C.3    17  MET17       0.0595
      7  SD        72.0210   28.0410   10.4570 S.3    17  MET17      -0.1393
      8  CE        72.2930   26.2980   10.2650 C.3    17  MET17       0.0692
      9  N         69.3450   32.0870   12.8380 N.3    19  PHE19      -0.1241
     10  CA        70.5980   32.1410   13.5670 C.3    19  PHE19       0.1605
     11  C         70.6710   33.2380   14.6060 C.2    19  PHE19       0.2264
     12  O         70.3700   34.3930   14.3230 O.2    19  PHE19      -0.2867
     13  CB        71.7070   32.3190   12.5450 C.3    19  PHE19       0.0534
     14  CG        73.0350   31.8840   13.0110 C.ar   19  PHE19      -0.0203
     15  CD1       73.2640   30.5640   13.3340 C.ar   19  PHE19      -0.0042
     16  CD2       74.0850   32.7870   13.0680 C.ar   19  PHE19      -0.0042
     17  CE1       74.5240   30.1400   13.7050 C.ar   19  PHE19      -0.0003
     18  CE2       75.3530   32.3770   13.4360 C.ar   19  PHE19      -0.0003
     19  CZ        75.5750   31.0460   13.7560 C.ar   19  PHE19      -0.0000
     20  N         72.5210   35.9070   16.9370 N.3    21  LYS21      -0.1245
     21  CA        73.7130   36.7430   16.8300 C.3    21  LYS21       0.1561
     22  C         74.7120   36.4980   17.9660 C.2    21  LYS21       0.2260
     23  O         75.8840   36.2270   17.7100 O.2    21  LYS21      -0.2867
     24  CB        73.3530   38.2340   16.8280 C.3    21  LYS21       0.0271
     25  CG        72.6580   38.7600   15.5790 C.3    21  LYS21       0.0035
     26  CD        72.4530   40.2710   15.7030 C.3    21  LYS21       0.0206
     27  CE        71.7310   40.8550   14.5120 C.3    21  LYS21       0.1093
     28  NZ        71.4710   42.3230   14.6510 N.3    21  LYS21      -0.1314
     29  N         76.2310   32.8690   18.9970 N.3    24  GLN24      -0.1231
     30  CA        75.8700   32.4240   17.6550 C.3    24  GLN24       0.1698
     31  C         75.5030   30.9450   17.7120 C.2    24  GLN24       0.2592
     32  O         76.3840   30.0910   17.8820 O.2    24  GLN24      -0.2718
     33  CB        77.0380   32.6290   16.6900 C.3    24  GLN24       0.0381
     34  CG        77.5570   34.0460   16.6520 C.3    24  GLN24       0.0905
     35  CD        78.3340   34.3500   15.3910 C.2    24  GLN24       0.2608
     36  OE1       78.7990   33.4440   14.6960 O.2    24  GLN24      -0.2717
     37  NE2       78.4600   35.6360   15.0740 N.am   24  GLN24      -0.0878
     38  N         74.2180   30.6500   17.5210 N.am   25  GLU25      -0.1966
     39  CA        73.7150   29.2850   17.5920 C.3    25  GLU25       0.1733
     40  C         72.4740   29.1120   16.7230 C.2    25  GLU25       0.2616
     41  O         71.7730   30.0920   16.4270 O.2    25  GLU25      -0.2715
     42  CB        73.3510   28.9730   19.0460 C.3    25  GLU25       0.0429
     43  CG        72.3740   29.9960   19.6600 C.3    25  GLU25       0.1163
     44  CD        72.1260   29.7990   21.1550 C.2    25  GLU25       0.3649
     45  OE1       73.0530   29.3350   21.8590 O.co2  25  GLU25      -0.2457
     46  OE2       71.0070   30.1170   21.6290 O.co2  25  GLU25      -0.2457
     47  N         72.2040   27.8780   16.2990 N.am   26  LEU26      -0.1977
     48  CA        71.0060   27.6270   15.4950 C.3    26  LEU26       0.1596
     49  C         69.8140   27.6610   16.4550 C.2    26  LEU26       0.2287
     50  O         69.8310   27.0010   17.4950 O.2    26  LEU26      -0.2864
     51  CB        71.0790   26.2720   14.7380 C.3    26  LEU26       0.0297
     52  CG        69.8790   25.7600   13.8880 C.3    26  LEU26       0.0022
     53  CD1       70.3460   24.8100   12.8230 C.3    26  LEU26       0.0001
     54  CD2       68.8240   25.0660   14.7250 C.3    26  LEU26       0.0001
     55  N         69.4390   36.5990   12.8160 N.3    60  LEU60      -0.1245
     56  CA        69.7200   36.7100   11.3890 C.3    60  LEU60       0.1561
     57  C         69.0710   35.5640   10.6410 C.2    60  LEU60       0.2260
     58  O         68.8260   34.4900   11.2040 O.2    60  LEU60      -0.2867
     59  CB        71.2150   36.5850   11.1340 C.3    60  LEU60       0.0270
     60  CG        72.1530   37.6800   11.6100 C.3    60  LEU60       0.0019
     61  CD1       73.5900   37.2790   11.2180 C.3    60  LEU60       0.0001
     62  CD2       71.7380   39.0240   10.9800 C.3    60  LEU60       0.0001
     63  N         69.6450   33.0150    7.4790 N.3    62  ARG62      -0.1245
     64  CA        70.6280   32.4600    6.5900 C.3    62  ARG62       0.1563
     65  C         69.9280   31.5800    5.5750 C.2    62  ARG62       0.2260
     66  O         69.3420   30.5260    5.8900 O.2    62  ARG62      -0.2867
     67  CB        71.6870   31.7350    7.4080 C.3    62  ARG62       0.0307
     68  CG        72.2880   32.6340    8.4960 C.3    62  ARG62       0.0489
     69  CD        73.3670   31.9510    9.3290 C.3    62  ARG62       0.2205
     70  NE        74.4610   31.4580    8.5030 N.pl3  62  ARG62      -0.0865
     71  CZ        75.5340   30.8350    8.9680 C.cat  62  ARG62       0.5346
     72  NH1       75.6710   30.6190   10.2670 N.pl3  62  ARG62       0.1354
     73  NH2       76.4910   30.4590    8.1310 N.pl3  62  ARG62       0.1354
     74  N         75.5660   22.8400    7.9750 N.3    68  ARG68      -0.1231
     75  CA        74.9970   23.2770    9.2320 C.3    68  ARG68       0.1694
     76  C         75.8370   24.4110    9.8410 C.2    68  ARG68       0.2593
     77  O         75.3640   25.5360   10.0830 O.2    68  ARG68      -0.2718
     78  CB        74.9980   22.0740   10.1870 C.3    68  ARG68       0.0321
     79  CG        74.5050   22.3800   11.5770 C.3    68  ARG68       0.0489
     80  CD        74.7230   21.2080   12.5410 C.3    68  ARG68       0.2205
     81  NE        75.0620   21.6990   13.8750 N.pl3  68  ARG68      -0.0865
     82  CZ        76.2070   21.4580   14.5110 C.cat  68  ARG68       0.5346
     83  NH1       77.1490   20.6950   13.9640 N.pl3  68  ARG68       0.1354
     84  NH2       76.4620   22.0960   15.6490 N.pl3  68  ARG68       0.1354
     85  N         77.1270   24.1050    9.9690 N.am   69  THR69      -0.1939
     86  CA        78.1230   24.9590   10.6010 C.3    69  THR69       0.2028
     87  C         78.9510   25.9580    9.8070 C.2    69  THR69       0.2642
     88  O         79.2370   27.0660   10.3030 O.2    69  THR69      -0.2714
     89  CB        79.1180   24.0810   11.3600 C.3    69  THR69       0.1808
     90  OG1       79.3990   22.9180   10.5680 O.3    69  THR69      -0.2208
     91  CG2       78.5500   23.6600   12.7080 C.3    69  THR69       0.0379
     92  N         79.3580   25.6010    8.5970 N.am   70  ARG70      -0.1963
     93  CA        80.2220   26.5350    7.8940 C.3    70  ARG70       0.1729
     94  C         79.5520   27.7680    7.3280 C.2    70  ARG70       0.2616
     95  O         78.3360   27.9140    7.3910 O.2    70  ARG70      -0.2715
     96  CB        81.1590   25.8290    6.8730 C.3    70  ARG70       0.0348
     97  CG        80.5040   25.2050    5.6910 C.3    70  ARG70       0.0492
     98  CD        81.5070   24.5830    4.7600 C.3    70  ARG70       0.2205
     99  NE        82.2760   23.4700    5.3320 N.pl3  70  ARG70      -0.0865
    100  CZ        83.0110   22.6240    4.6010 C.cat  70  ARG70       0.5346
    101  NH1       83.0720   22.7560    3.2810 N.pl3  70  ARG70       0.1354
    102  NH2       83.7220   21.6680    5.1750 N.pl3  70  ARG70       0.1354
    103  N         80.3760   28.7290    6.9370 N.am   71  TYR71      -0.1974
    104  CA        79.8740   29.9350    6.3390 C.3    71  TYR71       0.1639
    105  C         80.0850   29.7050    4.8550 C.2    71  TYR71       0.2290
    106  O         81.1950   29.7630    4.3700 O.2    71  TYR71      -0.2864
    107  CB        80.6420   31.1570    6.8200 C.3    71  TYR71       0.0560
    108  CG        80.3220   32.3520    5.9790 C.ar   71  TYR71      -0.0198
    109  CD1       79.0390   32.8650    5.9390 C.ar   71  TYR71      -0.0009
    110  CD2       81.2730   32.9170    5.1490 C.ar   71  TYR71      -0.0009
    111  CE1       78.7040   33.9090    5.0850 C.ar   71  TYR71       0.0417
    112  CE2       80.9480   33.9600    4.2960 C.ar   71  TYR71       0.0417
    113  CZ        79.6600   34.4470    4.2690 C.ar   71  TYR71       0.1957
    114  OH        79.3250   35.4660    3.4170 O.3    71  TYR71      -0.2866
    115  N         80.2040   30.9690    1.7440 N.3    73  ARG73      -0.1245
    116  CA        80.3260   32.2250    1.0050 C.3    73  ARG73       0.1563
    117  C         80.1320   31.9360   -0.4700 C.2    73  ARG73       0.2260
    118  O         80.5860   30.8920   -0.9730 O.2    73  ARG73      -0.2867
    119  CB        81.6970   32.8710    1.2300 C.3    73  ARG73       0.0307
    120  CG        81.9000   34.1650    0.4780 C.3    73  ARG73       0.0489
    121  CD        83.2990   34.6950    0.6680 C.3    73  ARG73       0.2205
    122  NE        83.4860   35.2340    2.0060 N.pl3  73  ARG73      -0.0865
    123  CZ        83.0780   36.4430    2.3800 C.cat  73  ARG73       0.5346
    124  NH1       82.4630   37.2410    1.5110 N.pl3  73  ARG73       0.1354
    125  NH2       83.2730   36.8520    3.6290 N.pl3  73  ARG73       0.1354
    126  N         75.1840   30.9220    0.3600 N.3    76  GLU76      -0.1231
    127  CA        74.1850   31.4280    1.2790 C.3    76  GLU76       0.1699
    128  C         74.1030   32.9760    1.2600 C.2    76  GLU76       0.2592
    129  O         74.9990   33.6510    0.7640 O.2    76  GLU76      -0.2718
    130  CB        74.4340   30.9300    2.6960 C.3    76  GLU76       0.0402
    131  CG        75.3260   31.8270    3.4990 C.3    76  GLU76       0.1161
    132  CD        75.5580   31.3280    4.9070 C.2    76  GLU76       0.3649
    133  OE1       76.3620   30.3800    5.1010 O.co2  76  GLU76      -0.2457
    134  OE2       74.9440   31.9000    5.8280 O.co2  76  GLU76      -0.2457
    135  N         73.0320   33.5170    1.8290 N.am   77  LYS77      -0.1966
    136  CA        72.7880   34.9500    1.9020 C.3    77  LYS77       0.1728
    137  C         72.2580   35.1630    3.3190 C.2    77  LYS77       0.2616
    138  O         71.4950   34.3460    3.8310 O.2    77  LYS77      -0.2715
    139  CB        71.7230   35.3310    0.8680 C.3    77  LYS77       0.0311
    140  CG        71.6690   36.7870    0.4760 C.3    77  LYS77       0.0038
    141  CD        70.7100   37.5830    1.3260 C.3    77  LYS77       0.0206
    142  CE        70.5030   39.0000    0.7620 C.3    77  LYS77       0.1093
    143  NZ        71.7410   39.8380    0.7170 N.3    77  LYS77      -0.1314
    144  N         72.7210   36.1960    3.9980 N.am   78  ILE78      -0.1977
    145  CA        72.2460   36.4300    5.3560 C.3    78  ILE78       0.1596
    146  C         71.4430   37.7080    5.3480 C.2    78  ILE78       0.2287
    147  O         71.9170   38.7380    4.8810 O.2    78  ILE78      -0.2864
    148  CB        73.4180   36.5640    6.3660 C.3    78  ILE78       0.0276
    149  CG1       74.2760   35.3060    6.3520 C.3    78  ILE78       0.0022
    150  CG2       72.8860   36.7570    7.7760 C.3    78  ILE78       0.0022
    151  CD1       75.5580   35.4500    7.1480 C.3    78  ILE78       0.0001
    152  N         68.7130   40.5300    7.4260 N.3    80  MET80      -0.1245
    153  CA        68.4140   41.1260    8.7320 C.3    80  MET80       0.1570
    154  C         66.9290   41.4260    8.7010 C.2    80  MET80       0.2261
    155  O         66.4000   41.7780    7.6440 O.2    80  MET80      -0.2867
    156  CB        69.2130   42.3970    8.9510 C.3    80  MET80       0.0387
    157  CG        70.6090   42.1300    9.4350 C.3    80  MET80       0.0595
    158  SD        71.2880   43.6360   10.0970 S.3    80  MET80      -0.1393
    159  CE        71.9360   44.3290    8.5770 C.3    80  MET80       0.0692
    160  N         74.3840   16.4470   16.0570 N.3   156  GLN156     -0.1245
    161  CA        73.7420   17.2390   15.0310 C.3   156  GLN156      0.1566
    162  C         74.4570   16.8170   13.7610 C.2   156  GLN156      0.2260
    163  O         75.5470   16.2500   13.8170 O.2   156  GLN156     -0.2867
    164  CB        73.9250   18.7360   15.2880 C.3   156  GLN156      0.0367
    165  CG        73.0850   19.2900   16.4420 C.3   156  GLN156      0.0905
    166  CD        72.3440   20.5890   16.0840 C.2   156  GLN156      0.2608
    167  OE1       72.9600   21.6470   15.8950 O.2   156  GLN156     -0.2717
    168  NE2       71.0150   20.5160   16.0280 N.am  156  GLN156     -0.0878
@<TRIPOS>BOND
     1   118   117    2
     2   117   116    1
     3   126   127    1
     4   140   139    1
     5   140   141    1
     6   120   121    1
     7   120   119    1
     8   121   122    1
     9   143   142    1
    10   142   141    1
    11   129   128    2
    12   139   136    1
    13   116   119    1
    14   116   115    1
    15   128   127    1
    16   128   135   am
    17   127   130    1
    18   124   123    1
    19   135   136    1
    20   136   137    1
    21   122   123    2
    22   123   125    1
    23   130   131    1
    24   101   100    1
    25   137   138    2
    26   137   144   am
    27   114   113    1
    28   131   132    1
    29   144   145    1
    30   113   112   ar
    31   113   111   ar
    32   112   110   ar
    33   106   105    2
    34   100   102    1
    35   100    99    2
    36    98    99    1
    37    98    97    1
    38   105   104    1
    39   147   146    2
    40   132   133   ar
    41   132   134   ar
    42   111   109   ar
    43   110   108   ar
    44   146   145    1
    45   145   148    1
    46    65    66    2
    47    65    64    1
    48    97    96    1
    49   109   108   ar
    50   108   107    1
    51   104   107    1
    52   104   103    1
    53   149   148    1
    54   149   151    1
    55   148   150    1
    56    64    67    1
    57    64    63    1
    58    96    93    1
    59   103    94   am
    60    94    95    2
    61    94    93    1
    62    67    68    1
    63   152   153    1
    64   155   154    2
    65     1     2    1
    66    93    92    1
    67    74    75    1
    68    73    71    1
    69    68    69    1
    70    70    71    2
    71    70    69    1
    72   159   158    1
    73    92    87   am
    74   154   153    1
    75   153   156    1
    76   156   157    1
    77    71    72    1
    78     5     2    1
    79     5     6    1
    80     2     3    1
    81    75    76    1
    82    75    78    1
    83     4     3    2
    84   157   158    1
    85    87    88    2
    86    87    86    1
    87    76    85   am
    88    76    77    2
    89    85    86    1
    90    78    79    1
    91     8     7    1
    92     6     7    1
    93    90    89    1
    94    86    89    1
    95    57    58    2
    96    57    56    1
    97    62    60    1
    98    59    56    1
    99    59    60    1
   100    61    60    1
   101    89    91    1
   102    56    55    1
   103    79    80    1
   104    80    81    1
   105    13    14    1
   106    13    10    1
   107    53    52    1
   108     9    10    1
   109    14    16   ar
   110    14    15   ar
   111    16    18   ar
   112    15    17   ar
   113    18    19   ar
   114    10    11    1
   115    17    19   ar
   116   162   163    2
   117   162   161    1
   118    81    82    2
   119    52    54    1
   120    52    51    1
   121    83    82    1
   122    12    11    2
   123    82    84    1
   124    27    28    1
   125    27    26    1
   126    36    35    2
   127    51    48    1
   128   161   164    1
   129   161   160    1
   130    37    35   am
   131   164   165    1
   132    35    34    1
   133    48    47    1
   134    48    49    1
   135    25    26    1
   136    25    24    1
   137   167   166    2
   138   168   166   am
   139   166   165    1
   140    47    40   am
   141    41    40    2
   142    49    50    2
   143    34    33    1
   144    33    30    1
   145    40    39    1
   146    24    21    1
   147    21    20    1
   148    21    22    1
   149    38    39    1
   150    38    31   am
   151    39    42    1
   152    30    31    1
   153    30    29    1
   154    23    22    2
   155    31    32    2
   156    42    43    1
   157    43    44    1
   158    44    46   ar
   159    44    45   ar
