@<TRIPOS>MOLECULE
tmp/1bmqB00.pdb
 87 87 0 0 0
SMALL
GASTEIGER

@<TRIPOS>ATOM
      1  N         39.5110   57.8740    9.1770 N.3    22  VAL22      -0.1231
      2  CA        38.7920   58.9030    8.4500 C.3    22  VAL22       0.1692
      3  C         39.6590   60.1030    8.1360 C.2    22  VAL22       0.2593
      4  O         40.7620   60.2510    8.6610 O.2    22  VAL22      -0.2718
      5  CB        37.5730   59.4190    9.2530 C.3    22  VAL22       0.0266
      6  CG1       36.6790   58.2660    9.6460 C.3    22  VAL22       0.0020
      7  CG2       38.0430   60.1720   10.4860 C.3    22  VAL22       0.0020
      8  N         39.1320   60.9550    7.2650 N.am   23  SER23      -0.1938
      9  CA        39.7860   62.1840    6.8520 C.3    23  SER23       0.2055
     10  C         38.7320   63.2400    7.1250 C.2    23  SER23       0.2643
     11  O         37.5410   62.9590    7.0260 O.2    23  SER23      -0.2714
     12  CB        40.1340   62.1320    5.3670 C.3    23  SER23       0.2130
     13  OG        41.2640   61.3000    5.1600 O.3    23  SER23      -0.2179
     14  N         39.1560   64.4480    7.4720 N.am   24  TRP24      -0.1959
     15  CA        38.1980   65.4910    7.8020 C.3    24  TRP24       0.1771
     16  C         37.8980   66.5160    6.7240 C.2    24  TRP24       0.2620
     17  O         38.7660   66.8860    5.9360 O.2    24  TRP24      -0.2715
     18  CB        38.6450   66.1840    9.0900 C.3    24  TRP24       0.0590
     19  CG        38.5820   65.2450   10.2370 C.ar   24  TRP24       0.0006
     20  CD1       39.5840   64.4430   10.6960 C.ar   24  TRP24       0.0946
     21  CD2       37.4240   64.9270   11.0130 C.ar   24  TRP24       0.0152
     22  NE1       39.1210   63.6370   11.7070 N.ar   24  TRP24      -0.2442
     23  CE2       37.7960   63.9140   11.9220 C.ar   24  TRP24       0.0810
     24  CE3       36.1030   65.3970   11.0240 C.ar   24  TRP24       0.0012
     25  CZ2       36.8990   63.3620   12.8370 C.ar   24  TRP24       0.0191
     26  CZ3       35.2080   64.8490   11.9350 C.ar   24  TRP24       0.0001
     27  CH2       35.6120   63.8400   12.8290 C.ar   24  TRP24       0.0015
     28  N         36.6470   66.9650    6.7070 N.am   25  ARG25      -0.1963
     29  CA        36.1820   67.9490    5.7440 C.3    25  ARG25       0.1729
     30  C         35.2340   68.9390    6.4110 C.2    25  ARG25       0.2616
     31  O         34.4000   68.5570    7.2300 O.2    25  ARG25      -0.2715
     32  CB        35.4650   67.2500    4.5870 C.3    25  ARG25       0.0348
     33  CG        35.2290   68.1400    3.3790 C.3    25  ARG25       0.0492
     34  CD        34.0680   67.6400    2.5420 C.3    25  ARG25       0.2205
     35  NE        32.8020   67.7300    3.2610 N.pl3  25  ARG25      -0.0865
     36  CZ        31.9690   66.7100    3.4290 C.cat  25  ARG25       0.5346
     37  NH1       32.2720   65.5220    2.9250 N.pl3  25  ARG25       0.1354
     38  NH2       30.8360   66.8750    4.0970 N.pl3  25  ARG25       0.1354
     39  N         35.3700   70.2110    6.0530 N.am   26  HIS26      -0.1960
     40  CA        34.5300   71.2700    6.6020 C.3    26  HIS26       0.1772
     41  C         33.4970   71.6860    5.5510 C.2    26  HIS26       0.2462
     42  O         33.8480   72.0420    4.4250 O.2    26  HIS26      -0.2730
     43  CB        35.4030   72.4680    6.9960 C.3    26  HIS26       0.0785
     44  CG        34.6460   73.6030    7.6140 C.ar   26  HIS26       0.0821
     45  ND1       35.2760   74.6600    8.2380 N.ar   26  HIS26      -0.2267
     46  CD2       33.3190   73.8560    7.7000 C.ar   26  HIS26       0.1154
     47  CE1       34.3690   75.5110    8.6800 C.ar   26  HIS26       0.1986
     48  NE2       33.1720   75.0480    8.3670 N.ar   26  HIS26      -0.2212
     49  N         32.2020   71.6390    5.9060 N.am   27  PRO27      -0.2727
     50  CA        31.1180   72.0120    4.9880 C.3    27  PRO27       0.1402
     51  C         31.2160   73.4190    4.3950 C.2    27  PRO27       0.2269
     52  O         30.4320   73.7850    3.5180 O.2    27  PRO27      -0.2865
     53  CB        29.8530   71.8450    5.8320 C.3    27  PRO27       0.0296
     54  CG        30.2440   70.9110    6.9250 C.3    27  PRO27       0.0237
     55  CD        31.6850   71.1990    7.2130 C.3    27  PRO27       0.0939
     56  N         34.6730   74.9970    4.2150 N.3    29  MET29      -0.1245
     57  CA        36.0410   75.1310    3.7320 C.3    29  MET29       0.1570
     58  C         36.5190   73.8340    3.0930 C.2    29  MET29       0.2261
     59  O         37.6960   73.6880    2.7680 O.2    29  MET29      -0.2867
     60  CB        36.9830   75.5070    4.8790 C.3    29  MET29       0.0387
     61  CG        36.4250   76.5390    5.8440 C.3    29  MET29       0.0595
     62  SD        37.3620   76.5860    7.3980 S.3    29  MET29      -0.1393
     63  CE        38.0180   78.2760    7.3600 C.3    29  MET29       0.0692
     64  N         37.5160   69.7860    2.4820 N.3    31  SER31      -0.1202
     65  CA        38.5450   68.9550    3.0920 C.3    31  SER31       0.2020
     66  C         39.7280   69.7450    3.6250 C.2    31  SER31       0.2618
     67  O         40.0290   70.8320    3.1430 O.2    31  SER31      -0.2717
     68  CB        39.0380   67.9190    2.0900 C.3    31  SER31       0.2103
     69  OG        38.0060   67.0000    1.7920 O.3    31  SER31      -0.2182
     70  N         40.3930   69.1770    4.6260 N.am   32  VAL32      -0.1979
     71  CA        41.5470   69.8020    5.2570 C.3    32  VAL32       0.1595
     72  C         42.8270   69.3800    4.5550 C.2    32  VAL32       0.2287
     73  O         43.7410   70.1820    4.3700 O.2    32  VAL32      -0.2864
     74  CB        41.6490   69.3970    6.7390 C.3    32  VAL32       0.0276
     75  CG1       42.7280   70.2080    7.4290 C.3    32  VAL32       0.0022
     76  CG2       40.3150   69.6040    7.4200 C.3    32  VAL32       0.0022
     77  N         40.2090   66.6340   15.4190 N.3    67  ARG67      -0.1245
     78  CA        40.0140   66.1900   14.0450 C.3    67  ARG67       0.1563
     79  C         41.3680   65.7550   13.4910 C.2    67  ARG67       0.2260
     80  O         41.8560   66.3020   12.5040 O.2    67  ARG67      -0.2867
     81  CB        39.4370   67.3320   13.2000 C.3    67  ARG67       0.0307
     82  CG        38.3800   68.1700   13.9110 C.3    67  ARG67       0.0489
     83  CD        37.0140   67.5140   13.8330 C.3    67  ARG67       0.2205
     84  NE        35.9420   68.4490   14.1680 N.pl3  67  ARG67      -0.0865
     85  CZ        34.7110   68.0860   14.5210 C.cat  67  ARG67       0.5346
     86  NH1       34.3840   66.8010   14.5940 N.pl3  67  ARG67       0.1354
     87  NH2       33.8010   69.0110   14.8030 N.pl3  67  ARG67       0.1354
@<TRIPOS>BOND
     1    69    68    1
     2    68    65    1
     3    64    65    1
     4    34    35    1
     5    34    33    1
     6    59    58    2
     7    37    36    1
     8    65    66    1
     9    58    57    1
    10    67    66    2
    11    35    36    2
    12    33    32    1
    13    36    38    1
    14    52    51    2
    15    66    70   am
    16    57    56    1
    17    57    60    1
    18    73    72    2
    19    51    50    1
    20    42    41    2
    21    72    71    1
    22    32    29    1
    23    70    71    1
    24    60    61    1
    25    50    53    1
    26    50    49    1
    27    13    12    1
    28    71    74    1
    29    12     9    1
    30    41    49   am
    31    41    40    1
    32    29    30    1
    33    29    28    1
    34    53    54    1
    35    61    62    1
    36    49    55    1
    37    17    16    2
    38    39    30   am
    39    39    40    1
    40    30    31    2
    41    40    43    1
    42    28    16   am
    43    16    15    1
    44    74    76    1
    45    74    75    1
    46     9    10    1
    47     9     8    1
    48    54    55    1
    49    43    44    1
    50    11    10    2
    51    10    14   am
    52     8     3   am
    53    63    62    1
    54    14    15    1
    55    44    46   ar
    56    44    45   ar
    57    46    48   ar
    58    15    18    1
    59     3     2    1
    60     3     4    2
    61    45    47   ar
    62    48    47   ar
    63     2     1    1
    64     2     5    1
    65    18    19    1
    66     5     6    1
    67     5     7    1
    68    19    20   ar
    69    19    21   ar
    70    20    22   ar
    71    21    24   ar
    72    21    23   ar
    73    24    26   ar
    74    22    23   ar
    75    23    25   ar
    76    26    27   ar
    77    80    79    2
    78    27    25   ar
    79    81    82    1
    80    81    78    1
    81    79    78    1
    82    83    82    1
    83    83    84    1
    84    78    77    1
    85    84    85    2
    86    85    86    1
    87    85    87    1
