@<TRIPOS>MOLECULE
tmp/1bmqA00.pdb
 86 84 0 0 0
SMALL
GASTEIGER

@<TRIPOS>ATOM
      1  N         25.6040   61.7830   -3.6590 N.3    43  PHE43      -0.1241
      2  CA        25.5240   60.3270   -3.6700 C.3    43  PHE43       0.1605
      3  C         24.0940   59.8170   -3.5500 C.2    43  PHE43       0.2264
      4  O         23.2440   60.4530   -2.9250 O.2    43  PHE43      -0.2867
      5  CB        26.3500   59.7500   -2.5230 C.3    43  PHE43       0.0534
      6  CG        27.8220   59.9630   -2.6750 C.ar   43  PHE43      -0.0203
      7  CD1       28.6300   58.9500   -3.1690 C.ar   43  PHE43      -0.0042
      8  CD2       28.4040   61.1720   -2.3130 C.ar   43  PHE43      -0.0042
      9  CE1       29.9930   59.1350   -3.3040 C.ar   43  PHE43      -0.0003
     10  CE2       29.7700   61.3680   -2.4440 C.ar   43  PHE43      -0.0003
     11  CZ        30.5660   60.3470   -2.9390 C.ar   43  PHE43      -0.0000
     12  N         24.9170   57.6150    0.4820 N.3    46  ILE46      -0.1231
     13  CA        25.7470   58.3420    1.4430 C.3    46  ILE46       0.1678
     14  C         25.4720   59.8410    1.4420 C.2    46  ILE46       0.2434
     15  O         25.1190   60.4140    0.4140 O.2    46  ILE46      -0.2733
     16  CB        27.2620   58.1340    1.1740 C.3    46  ILE46       0.0265
     17  CG1       27.5040   57.8220   -0.3010 C.3    46  ILE46       0.0019
     18  CG2       27.8000   57.0140    2.0510 C.3    46  ILE46       0.0020
     19  CD1       27.2070   56.3930   -0.7010 C.3    46  ILE46       0.0001
     20  N         25.6260   60.4950    2.6060 N.am   47  PRO47      -0.2718
     21  CA        25.3890   61.9410    2.7120 C.3    47  PRO47       0.1535
     22  C         26.2930   62.7390    1.7710 C.2    47  PRO47       0.2598
     23  O         27.4850   62.4470    1.6430 O.2    47  PRO47      -0.2715
     24  CB        25.6760   62.2510    4.1840 C.3    47  PRO47       0.0310
     25  CG        25.5540   60.9350    4.8880 C.3    47  PRO47       0.0237
     26  CD        26.0210   59.9100    3.9000 C.3    47  PRO47       0.0939
     27  N         25.7190   63.7450    1.1190 N.am   48  ARG48      -0.1964
     28  CA        26.4620   64.5820    0.1830 C.3    48  ARG48       0.1729
     29  C         27.7080   65.1940    0.8140 C.2    48  ARG48       0.2616
     30  O         27.6820   65.6470    1.9560 O.2    48  ARG48      -0.2715
     31  CB        25.5630   65.7000   -0.3550 C.3    48  ARG48       0.0348
     32  CG        26.0720   67.1030   -0.0680 C.3    48  ARG48       0.0492
     33  CD        25.2060   68.1440   -0.7320 C.3    48  ARG48       0.2205
     34  NE        25.5050   68.2610   -2.1540 N.pl3  48  ARG48      -0.0865
     35  CZ        24.9890   69.1920   -2.9480 C.cat  48  ARG48       0.5346
     36  NH1       24.1420   70.0930   -2.4580 N.pl3  48  ARG48       0.1354
     37  NH2       25.3200   69.2230   -4.2330 N.pl3  48  ARG48       0.1354
     38  N         28.7970   65.2080    0.0540 N.am   49  ARG49      -0.1963
     39  CA        30.0480   65.7690    0.5290 C.3    49  ARG49       0.1729
     40  C         29.9840   67.2860    0.4340 C.2    49  ARG49       0.2616
     41  O         30.6750   67.9020   -0.3790 O.2    49  ARG49      -0.2715
     42  CB        31.2110   65.2320   -0.3010 C.3    49  ARG49       0.0348
     43  CG        31.3850   63.7270   -0.2030 C.3    49  ARG49       0.0492
     44  CD        32.8020   63.3070   -0.5450 C.3    49  ARG49       0.2205
     45  NE        33.7860   64.3140   -0.1540 N.pl3  49  ARG49      -0.0865
     46  CZ        34.3430   65.1830   -0.9920 C.cat  49  ARG49       0.5346
     47  NH1       34.0130   65.1710   -2.2770 N.pl3  49  ARG49       0.1354
     48  NH2       35.2300   66.0650   -0.5480 N.pl3  49  ARG49       0.1354
     49  N         29.1380   67.8770    1.2690 N.am   50  THR50      -0.1951
     50  CA        28.9640   69.3240    1.3070 C.3    50  THR50       0.1897
     51  C         30.3050   70.0270    1.4720 C.2    50  THR50       0.2313
     52  O         31.0610   69.7230    2.3950 O.2    50  THR50      -0.2863
     53  CB        28.0540   69.7430    2.4790 C.3    50  THR50       0.1794
     54  OG1       28.3250   68.9130    3.6170 O.3    50  THR50      -0.2208
     55  CG2       26.5890   69.5980    2.0980 C.3    50  THR50       0.0378
     56  N         36.3260   61.9060   -2.7860 N.3   106  SER106     -0.1202
     57  CA        35.0320   61.2990   -2.4960 C.3   106  SER106      0.2020
     58  C         35.0370   60.5270   -1.1840 C.2   106  SER106      0.2618
     59  O         36.0530   60.4500   -0.5010 O.2   106  SER106     -0.2717
     60  CB        34.6330   60.3640   -3.6430 C.3   106  SER106      0.2103
     61  OG        34.2990   59.0730   -3.1690 O.3   106  SER106     -0.2182
     62  N         33.8840   59.9740   -0.8240 N.am  107  HIS107     -0.1975
     63  CA        33.7720   59.1820    0.3920 C.3   107  HIS107      0.1656
     64  C         34.6250   57.9520    0.1090 C.2   107  HIS107      0.2291
     65  O         35.0410   57.7410   -1.0280 O.2   107  HIS107     -0.2864
     66  CB        32.3080   58.7820    0.6270 C.3   107  HIS107      0.0771
     67  CG        32.0850   57.9870    1.8760 C.ar  107  HIS107      0.0820
     68  ND1       31.7700   58.5710    3.0850 N.ar  107  HIS107     -0.2267
     69  CD2       32.1360   56.6530    2.1080 C.ar  107  HIS107      0.1154
     70  CE1       31.6380   57.6330    4.0060 C.ar  107  HIS107      0.1986
     71  NE2       31.8560   56.4590    3.4390 N.ar  107  HIS107     -0.2212
     72  N         41.4300   62.1250   -1.5960 N.3   153  GLN153     -0.1245
     73  CA        40.8170   62.7060   -0.4110 C.3   153  GLN153      0.1566
     74  C         39.5640   61.9010   -0.0920 C.2   153  GLN153      0.2260
     75  O         38.4920   62.1620   -0.6290 O.2   153  GLN153     -0.2867
     76  CB        40.4580   64.1710   -0.6650 C.3   153  GLN153      0.0367
     77  CG        39.3150   64.7050    0.1800 C.3   153  GLN153      0.0905
     78  CD        39.6100   64.6640    1.6690 C.2   153  GLN153      0.2608
     79  OE1       40.5490   65.3000    2.1470 O.2   153  GLN153     -0.2717
     80  NE2       38.7990   63.9160    2.4130 N.am  153  GLN153     -0.0878
     81  N         37.8310   58.9600    3.1790 N.3   155  CYS155     -0.1235
     82  CA        37.9740   58.2480    4.4450 C.3   155  CYS155      0.1677
     83  C         38.4650   56.8470    4.1420 C.2   155  CYS155      0.2270
     84  O         37.9860   56.2120    3.2090 O.2   155  CYS155     -0.2867
     85  CB        36.6290   58.1500    5.1640 C.3   155  CYS155      0.0956
     86  SG        36.1030   59.7160    5.7860 S.3   155  CYS155     -0.0801
@<TRIPOS>BOND
     1    37    35    1
     2     2     1    1
     3     2     3    1
     4     2     5    1
     5    60    61    1
     6    60    57    1
     7     3     4    2
     8     9     7   ar
     9     9    11   ar
    10     7     6   ar
    11    35    36    1
    12    35    34    2
    13    11    10   ar
    14    56    57    1
    15     6     5    1
    16     6     8   ar
    17    57    58    1
    18    10     8   ar
    19    47    46    1
    20    34    33    1
    21    72    73    1
    22    58    62   am
    23    58    59    2
    24    65    64    2
    25    46    48    1
    26    46    45    2
    27    62    63    1
    28    33    32    1
    29    19    17    1
    30    76    73    1
    31    76    77    1
    32    75    74    2
    33    44    43    1
    34    44    45    1
    35    73    74    1
    36    41    40    2
    37    31    32    1
    38    31    28    1
    39    17    16    1
    40    42    43    1
    41    42    39    1
    42    38    39    1
    43    38    29   am
    44    64    63    1
    45    77    78    1
    46    28    29    1
    47    28    27    1
    48    63    66    1
    49    15    14    2
    50    40    39    1
    51    40    49   am
    52    12    13    1
    53    66    67    1
    54    29    30    2
    55    27    22   am
    56    16    13    1
    57    16    18    1
    58    49    50    1
    59    50    51    1
    60    50    53    1
    61    14    13    1
    62    14    20   am
    63    51    52    2
    64    23    22    2
    65    78    79    2
    66    78    80   am
    67    22    21    1
    68    67    69   ar
    69    67    68   ar
    70    55    53    1
    71    69    71   ar
    72    53    54    1
    73    20    21    1
    74    20    26    1
    75    21    24    1
    76    68    70   ar
    77    81    82    1
    78    84    83    2
    79    71    70   ar
    80    26    25    1
    81    83    82    1
    82    24    25    1
    83    82    85    1
    84    85    86    1
