@<TRIPOS>MOLECULE
tmp/1bn1A00.pdb
 133 130 0 0 0
SMALL
GASTEIGER

@<TRIPOS>ATOM
      1  N        -12.7290    6.3000   11.4180 N.3    89  GLN89      -0.1245
      2  CA       -12.4200    5.1360   10.6050 C.3    89  GLN89       0.1566
      3  C        -12.5490    3.8490   11.3780 C.2    89  GLN89       0.2260
      4  O        -12.5910    3.8580   12.6040 O.2    89  GLN89      -0.2867
      5  CB       -10.9910    5.2200   10.0670 C.3    89  GLN89       0.0367
      6  CG        -9.9100    5.2830   11.1500 C.3    89  GLN89       0.0905
      7  CD        -9.0860    4.0170   11.2550 C.2    89  GLN89       0.2608
      8  OE1       -9.6180    2.9210   11.2930 O.2    89  GLN89      -0.2717
      9  NE2       -7.7790    4.1700   11.3140 N.am   89  GLN89      -0.0878
     10  N        -11.2110   -0.4220   11.0940 N.3    91  HIS91      -0.1241
     11  CA       -10.3210   -1.3660   10.4380 C.3    91  HIS91       0.1621
     12  C        -10.4410   -2.6700   11.1880 C.2    91  HIS91       0.2264
     13  O        -11.1470   -2.7650   12.2030 O.2    91  HIS91      -0.2867
     14  CB        -8.8650   -0.8800   10.4860 C.3    91  HIS91       0.0745
     15  CG        -8.3900   -0.5910   11.9050 C.ar   91  HIS91       0.0817
     16  ND1       -8.5990    0.6260   12.4020 N.ar   91  HIS91      -0.2268
     17  CD2       -7.7240   -1.3190   12.9260 C.ar   91  HIS91       0.1154
     18  CE1       -8.1110    0.7290   13.6700 C.ar   91  HIS91       0.1986
     19  NE2       -7.5710   -0.4710   13.9960 N.ar   91  HIS91      -0.2212
     20  N         -8.2410   -6.4700   12.3560 N.3    93  HIS93      -0.1241
     21  CA        -6.9970   -7.1620   12.6350 C.3    93  HIS93       0.1621
     22  C         -7.4720   -8.6060   12.4900 C.2    93  HIS93       0.2264
     23  O         -8.5670   -8.9520   12.9580 O.2    93  HIS93      -0.2867
     24  CB        -6.5190   -6.8950   14.0570 C.3    93  HIS93       0.0745
     25  CG        -6.1450   -5.4500   14.2770 C.ar   93  HIS93       0.0817
     26  ND1       -4.8800   -5.0740   14.0870 N.ar   93  HIS93      -0.2268
     27  CD2       -6.8410   -4.3030   14.6590 C.ar   93  HIS93       0.1154
     28  CE1       -4.7280   -3.7520   14.3310 C.ar   93  HIS93       0.1986
     29  NE2       -5.9400   -3.2700   14.6880 N.ar   93  HIS93      -0.2212
     30  N        -12.1070   -2.5720   14.9600 N.3   116  HIS116     -0.1241
     31  CA       -11.8630   -1.3870   15.7620 C.3   116  HIS116      0.1621
     32  C        -12.5070   -0.1820   15.0990 C.2   116  HIS116      0.2264
     33  O        -12.1850    0.1490   13.9450 O.2   116  HIS116     -0.2867
     34  CB       -10.3680   -1.1330   15.9060 C.3   116  HIS116      0.0745
     35  CG        -9.6770   -2.1860   16.7360 C.ar  116  HIS116      0.0817
     36  ND1       -8.3570   -2.3160   16.6150 N.ar  116  HIS116     -0.2268
     37  CD2      -10.0670   -3.0670   17.7570 C.ar  116  HIS116      0.1154
     38  CE1       -7.8830   -3.2270   17.5090 C.ar  116  HIS116      0.1986
     39  NE2       -8.9370   -3.6880   18.2120 N.ar  116  HIS116     -0.2212
     40  N        -12.6850    3.5390   15.3780 N.3   118  VAL118     -0.1245
     41  CA       -11.9230    4.6310   15.9780 C.3   118  VAL118      0.1561
     42  C        -12.6610    5.9660   16.0390 C.2   118  VAL118      0.2260
     43  O        -13.1510    6.4690   15.0170 O.2   118  VAL118     -0.2867
     44  CB       -10.5440    4.7820   15.2600 C.3   118  VAL118      0.0252
     45  CG1       -9.6320    5.7500   16.0160 C.3   118  VAL118      0.0019
     46  CG2       -9.8830    3.4210   15.1450 C.3   118  VAL118      0.0019
     47  N         -8.4760   15.3300   15.0370 N.3   127  PHE127     -0.1227
     48  CA        -7.8470   14.0720   15.4100 C.3   127  PHE127      0.1736
     49  C         -6.4240   14.2570   15.9210 C.2   127  PHE127      0.2596
     50  O         -6.0300   13.6440   16.9140 O.2   127  PHE127     -0.2718
     51  CB        -7.8650   13.1000   14.2290 C.3   127  PHE127      0.0547
     52  CG        -7.3020   11.7490   14.5520 C.ar  127  PHE127     -0.0202
     53  CD1       -8.0840   10.7930   15.1750 C.ar  127  PHE127     -0.0042
     54  CD2       -5.9750   11.4440   14.2610 C.ar  127  PHE127     -0.0042
     55  CE1       -7.5600    9.5470   15.5110 C.ar  127  PHE127     -0.0003
     56  CE2       -5.4340   10.2010   14.5920 C.ar  127  PHE127     -0.0003
     57  CZ        -6.2330    9.2510   15.2200 C.ar  127  PHE127     -0.0000
     58  N         -5.6650   15.1160   15.2450 N.am  128  GLY128     -0.1957
     59  CA        -4.2860   15.3790   15.6340 C.3   128  GLY128      0.1869
     60  C         -4.1260   15.9140   17.0440 C.2   128  GLY128      0.2309
     61  O         -3.1430   15.6160   17.7100 O.2   128  GLY128     -0.2863
     62  N         -4.8960   12.9990   19.7480 N.3   131  VAL131     -0.1245
     63  CA        -3.8140   12.0580   20.0280 C.3   131  VAL131      0.1561
     64  C         -2.7410   12.6020   20.9660 C.2   131  VAL131      0.2260
     65  O         -1.7000   11.9810   21.1550 O.2   131  VAL131     -0.2867
     66  CB        -3.1590   11.5040   18.7370 C.3   131  VAL131      0.0252
     67  CG1       -4.1640   10.6700   17.9690 C.3   131  VAL131      0.0019
     68  CG2       -2.6190   12.6260   17.8740 C.3   131  VAL131      0.0019
     69  N        -11.9710    3.7370   21.2840 N.3   139  VAL139     -0.1245
     70  CA       -12.0790    2.7320   20.2450 C.3   139  VAL139      0.1561
     71  C        -13.0700    1.6670   20.6930 C.2   139  VAL139      0.2260
     72  O        -13.0010    1.1870   21.8260 O.2   139  VAL139     -0.2867
     73  CB       -10.7180    2.0660   19.8940 C.3   139  VAL139      0.0252
     74  CG1      -10.9070    1.0850   18.7360 C.3   139  VAL139      0.0019
     75  CG2       -9.6800    3.1180   19.5150 C.3   139  VAL139      0.0019
     76  N         -3.1270    2.8520   21.4010 N.3   194  LEU194     -0.1231
     77  CA        -3.3150    2.3940   20.0330 C.3   194  LEU194      0.1693
     78  C         -2.5350    1.1000   20.0470 C.2   194  LEU194      0.2593
     79  O         -1.5760    0.9580   20.8160 O.2   194  LEU194     -0.2718
     80  CB        -2.6500    3.3490   19.0500 C.3   194  LEU194      0.0284
     81  CG        -3.2760    4.7370   18.9680 C.3   194  LEU194      0.0019
     82  CD1       -2.4000    5.6260   18.0940 C.3   194  LEU194      0.0001
     83  CD2       -4.6900    4.6280   18.4190 C.3   194  LEU194      0.0001
     84  N         -2.9290    0.1530   19.2170 N.am  195  THR195     -0.1939
     85  CA        -2.2340   -1.1170   19.1860 C.3   195  THR195      0.2028
     86  C         -1.1540   -1.1930   18.1140 C.2   195  THR195      0.2643
     87  O         -0.5310   -2.2420   17.9440 O.2   195  THR195     -0.2714
     88  CB        -3.2070   -2.2800   19.0310 C.3   195  THR195      0.1808
     89  OG1       -3.9130   -2.1380   17.7990 O.3   195  THR195     -0.2208
     90  CG2       -4.2090   -2.3000   20.1890 C.3   195  THR195      0.0379
     91  N         -0.9640   -0.1140   17.3540 N.am  196  THR196     -0.1937
     92  CA         0.0890   -0.0760   16.3350 C.3   196  THR196      0.2013
     93  C          0.8810    1.1970   16.5900 C.2   196  THR196      0.2484
     94  O          0.3860    2.1210   17.2600 O.2   196  THR196     -0.2729
     95  CB        -0.4580    0.0370   14.8850 C.3   196  THR196      0.1807
     96  OG1       -1.1920    1.2570   14.7480 O.3   196  THR196     -0.2208
     97  CG2       -1.3430   -1.1300   14.5170 C.3   196  THR196      0.0379
     98  N          2.1410    1.2530   16.1210 N.am  197  PRO197     -0.2715
     99  CA         2.8990    2.4840   16.3440 C.3   197  PRO197      0.1521
    100  C          2.0380    3.6230   15.7850 C.2   197  PRO197      0.2440
    101  O          1.3400    3.4360   14.7860 O.2   197  PRO197     -0.2731
    102  CB         4.1540    2.2470   15.5090 C.3   197  PRO197      0.0310
    103  CG         4.3990    0.7960   15.7140 C.3   197  PRO197      0.0237
    104  CD         2.9980    0.2150   15.5190 C.3   197  PRO197      0.0939
    105  N          2.1310    4.8320   16.3600 N.am  198  PRO198     -0.2727
    106  CA         2.9580    5.2840   17.4830 C.3   198  PRO198      0.1402
    107  C          2.5990    4.8110   18.9000 C.2   198  PRO198      0.2269
    108  O          3.1890    5.2800   19.8670 O.2   198  PRO198     -0.2865
    109  CB         2.8960    6.8030   17.3410 C.3   198  PRO198      0.0296
    110  CG         1.4930    7.0310   16.8470 C.3   198  PRO198      0.0237
    111  CD         1.3190    5.9420   15.8180 C.3   198  PRO198      0.0939
    112  N          0.2990    5.5080   20.9960 N.3   200  LEU200     -0.1245
    113  CA        -0.0670    6.5930   21.9020 C.3   200  LEU200      0.1561
    114  C         -1.0790    6.1340   22.9490 C.2   200  LEU200      0.2260
    115  O         -2.0690    5.4900   22.6290 O.2   200  LEU200     -0.2867
    116  CB        -0.6230    7.7740   21.0970 C.3   200  LEU200      0.0270
    117  CG         0.3420    8.2550   20.0050 C.3   200  LEU200      0.0019
    118  CD1       -0.2290    9.4530   19.2970 C.3   200  LEU200      0.0001
    119  CD2        1.6870    8.6030   20.5980 C.3   200  LEU200      0.0001
    120  N        -10.6910    2.2190   25.8870 N.3   205  TRP205     -0.1241
    121  CA       -11.1360    1.0470   25.1730 C.3   205  TRP205      0.1605
    122  C        -12.4850    0.5930   25.6600 C.2   205  TRP205      0.2264
    123  O        -12.7330    0.5670   26.8640 O.2   205  TRP205     -0.2867
    124  CB       -10.1260   -0.0860   25.3330 C.3   205  TRP205      0.0550
    125  CG        -9.0370   -0.0180   24.3390 C.ar  205  TRP205      0.0003
    126  CD1       -7.7860    0.5170   24.5150 C.ar  205  TRP205      0.0946
    127  CD2       -9.0910   -0.4850   22.9840 C.ar  205  TRP205      0.0152
    128  NE1       -7.0620    0.4120   23.3470 N.ar  205  TRP205     -0.2442
    129  CE2       -7.8350   -0.2010   22.3940 C.ar  205  TRP205      0.0810
    130  CE3      -10.0790   -1.1170   22.2110 C.ar  205  TRP205      0.0012
    131  CZ2       -7.5400   -0.5270   21.0660 C.ar  205  TRP205      0.0191
    132  CZ3       -9.7860   -1.4390   20.8940 C.ar  205  TRP205      0.0001
    133  CH2       -8.5210   -1.1420   20.3350 C.ar  205  TRP205      0.0015
@<TRIPOS>BOND
     1     5     2    1
     2     5     6    1
     3    11    14    1
     4    11    10    1
     5    11    12    1
     6    14    15    1
     7     2     3    1
     8     2     1    1
     9     6     7    1
    10    12    13    2
    11     7     8    2
    12     7     9   am
    13     3     4    2
    14    15    16   ar
    15    15    17   ar
    16    20    21    1
    17    16    18   ar
    18    22    21    1
    19    22    23    2
    20    21    24    1
    21    17    19   ar
    22    18    19   ar
    23    33    32    2
    24    24    25    1
    25    26    25   ar
    26    26    28   ar
    27    51    52    1
    28    51    48    1
    29    54    52   ar
    30    54    56   ar
    31    25    27   ar
    32    28    29   ar
    33    97    95    1
    34    52    53   ar
    35    56    57   ar
    36    27    29   ar
    37    96    95    1
    38   101   100    2
    39    95    92    1
    40    30    31    1
    41    43    42    2
    42    47    48    1
    43    32    31    1
    44    46    44    1
    45    53    55   ar
    46    57    55   ar
    47    58    59    1
    48    58    49   am
    49    44    41    1
    50    44    45    1
    51    40    41    1
    52    48    49    1
    53   102   103    1
    54   102    99    1
    55   104   103    1
    56   104    98    1
    57    59    60    1
    58    31    34    1
    59   100    99    1
    60   100   105   am
    61   111   105    1
    62   111   110    1
    63    34    35    1
    64    49    50    2
    65    41    42    1
    66    98    99    1
    67    98    93   am
    68    92    93    1
    69    92    91    1
    70   105   106    1
    71    93    94    2
    72    36    35   ar
    73    36    38   ar
    74    35    37   ar
    75   110   109    1
    76    60    61    2
    77   109   106    1
    78    91    86   am
    79   106   107    1
    80    38    39   ar
    81    37    39   ar
    82    89    88    1
    83    68    66    1
    84    87    86    2
    85    67    66    1
    86    82    81    1
    87    86    85    1
    88    83    81    1
    89    74    73    1
    90    66    63    1
    91   107   108    2
    92    81    80    1
    93    88    85    1
    94    88    90    1
    95    80    77    1
    96    85    84    1
    97    84    78   am
    98   118   117    1
    99    75    73    1
   100    62    63    1
   101    73    70    1
   102   117   119    1
   103   117   116    1
   104    63    64    1
   105    77    78    1
   106    77    76    1
   107    78    79    2
   108    70    71    1
   109    70    69    1
   110   133   132   ar
   111   133   131   ar
   112    71    72    2
   113   132   130   ar
   114    64    65    2
   115   112   113    1
   116   131   129   ar
   117   116   113    1
   118   113   114    1
   119   130   127   ar
   120   129   127   ar
   121   129   128   ar
   122   115   114    2
   123   127   125   ar
   124   128   126   ar
   125   125   126   ar
   126   125   124    1
   127   121   124    1
   128   121   122    1
   129   121   120    1
   130   122   123    2
