@<TRIPOS>MOLECULE
tmp/1bn4A00.pdb
 133 130 0 0 0
SMALL
GASTEIGER

@<TRIPOS>ATOM
      1  N        -12.7050    6.3380   11.4000 N.3    89  GLN89      -0.1245
      2  CA       -12.3960    5.1760   10.5770 C.3    89  GLN89       0.1566
      3  C        -12.5470    3.8830   11.3470 C.2    89  GLN89       0.2260
      4  O        -12.6180    3.8870   12.5740 O.2    89  GLN89      -0.2867
      5  CB       -10.9570    5.2490   10.0390 C.3    89  GLN89       0.0367
      6  CG        -9.8570    5.2740   11.1100 C.3    89  GLN89       0.0905
      7  CD        -9.1030    3.9710   11.2210 C.2    89  GLN89       0.2608
      8  OE1       -9.6920    2.9100   11.3320 O.2    89  GLN89      -0.2717
      9  NE2       -7.7890    4.0500   11.2010 N.am   89  GLN89      -0.0878
     10  N        -11.1700   -0.3820   11.1300 N.3    91  HIS91      -0.1241
     11  CA       -10.2830   -1.3470   10.5000 C.3    91  HIS91       0.1621
     12  C        -10.4100   -2.6650   11.2300 C.2    91  HIS91       0.2264
     13  O        -11.1120   -2.7740   12.2450 O.2    91  HIS91      -0.2867
     14  CB        -8.8250   -0.8790   10.5400 C.3    91  HIS91       0.0745
     15  CG        -8.3560   -0.5380   11.9460 C.ar   91  HIS91       0.0817
     16  ND1       -8.5100    0.7150   12.3710 N.ar   91  HIS91      -0.2268
     17  CD2       -7.7410   -1.2370   13.0090 C.ar   91  HIS91       0.1154
     18  CE1       -8.0330    0.8640   13.6340 C.ar   91  HIS91       0.1986
     19  NE2       -7.5580   -0.3400   14.0310 N.ar   91  HIS91      -0.2212
     20  N         -8.2440   -6.4830   12.3390 N.3    93  HIS93      -0.1241
     21  CA        -6.9980   -7.1620   12.6290 C.3    93  HIS93       0.1621
     22  C         -7.4600   -8.6000   12.4840 C.2    93  HIS93       0.2264
     23  O         -8.5390   -8.9540   12.9780 O.2    93  HIS93      -0.2867
     24  CB        -6.5420   -6.9050   14.0680 C.3    93  HIS93       0.0745
     25  CG        -6.1610   -5.4620   14.3050 C.ar   93  HIS93       0.0817
     26  ND1       -4.8890   -5.1040   14.1560 N.ar   93  HIS93      -0.2268
     27  CD2       -6.8540   -4.3060   14.6560 C.ar   93  HIS93       0.1154
     28  CE1       -4.7340   -3.7810   14.3950 C.ar   93  HIS93       0.1986
     29  NE2       -5.9480   -3.2860   14.7060 N.ar   93  HIS93      -0.2212
     30  N        -12.1290   -2.5240   14.9560 N.3   116  HIS116     -0.1241
     31  CA       -11.8810   -1.3410   15.7550 C.3   116  HIS116      0.1621
     32  C        -12.4990   -0.1260   15.1010 C.2   116  HIS116      0.2264
     33  O        -12.1370    0.2280   13.9760 O.2   116  HIS116     -0.2867
     34  CB       -10.3860   -1.0920   15.9050 C.3   116  HIS116      0.0745
     35  CG        -9.7080   -2.1310   16.7600 C.ar  116  HIS116      0.0817
     36  ND1       -8.3900   -2.2790   16.6420 N.ar  116  HIS116     -0.2268
     37  CD2      -10.1190   -3.0470   17.7380 C.ar  116  HIS116      0.1154
     38  CE1       -7.9410   -3.2360   17.4920 C.ar  116  HIS116      0.1986
     39  NE2       -9.0070   -3.7070   18.1670 N.ar  116  HIS116     -0.2212
     40  N        -12.6560    3.6000   15.3850 N.3   118  VAL118     -0.1245
     41  CA       -11.9020    4.6900   15.9960 C.3   118  VAL118      0.1561
     42  C        -12.6530    6.0110   16.0400 C.2   118  VAL118      0.2260
     43  O        -13.1420    6.4880   15.0100 O.2   118  VAL118     -0.2867
     44  CB       -10.5390    4.8710   15.2730 C.3   118  VAL118      0.0252
     45  CG1       -9.6570    5.8810   15.9970 C.3   118  VAL118      0.0019
     46  CG2       -9.8450    3.5260   15.1680 C.3   118  VAL118      0.0019
     47  N         -8.4740   15.3610   15.0470 N.3   127  PHE127     -0.1227
     48  CA        -7.8460   14.0970   15.4090 C.3   127  PHE127      0.1736
     49  C         -6.4080   14.2640   15.9070 C.2   127  PHE127      0.2596
     50  O         -5.9950   13.6190   16.8730 O.2   127  PHE127     -0.2718
     51  CB        -7.8870   13.1330   14.2210 C.3   127  PHE127      0.0547
     52  CG        -7.3310   11.7780   14.5270 C.ar  127  PHE127     -0.0202
     53  CD1       -8.1360   10.7990   15.0840 C.ar  127  PHE127     -0.0042
     54  CD2       -5.9870   11.4920   14.2940 C.ar  127  PHE127     -0.0042
     55  CE1       -7.6180    9.5490   15.4140 C.ar  127  PHE127     -0.0003
     56  CE2       -5.4520   10.2430   14.6200 C.ar  127  PHE127     -0.0003
     57  CZ        -6.2730    9.2700   15.1830 C.ar  127  PHE127     -0.0000
     58  N         -5.6490   15.1280   15.2380 N.am  128  GLY128     -0.1957
     59  CA        -4.2670   15.3700   15.6240 C.3   128  GLY128      0.1869
     60  C         -4.1090   15.9130   17.0340 C.2   128  GLY128      0.2309
     61  O         -3.1270   15.6130   17.7040 O.2   128  GLY128     -0.2863
     62  N         -4.9320   13.0790   19.6820 N.3   131  VAL131     -0.1245
     63  CA        -3.8540   12.1400   19.9820 C.3   131  VAL131      0.1561
     64  C         -2.7860   12.6880   20.9280 C.2   131  VAL131      0.2260
     65  O         -1.7540   12.0660   21.1450 O.2   131  VAL131     -0.2867
     66  CB        -3.2110   11.5420   18.7000 C.3   131  VAL131      0.0252
     67  CG1       -4.2170   10.6690   17.9930 C.3   131  VAL131      0.0019
     68  CG2       -2.7080   12.6340   17.7680 C.3   131  VAL131      0.0019
     69  N        -12.0400    3.7660   21.2810 N.3   139  VAL139     -0.1245
     70  CA       -12.1210    2.7530   20.2500 C.3   139  VAL139      0.1561
     71  C        -13.0800    1.6760   20.7010 C.2   139  VAL139      0.2260
     72  O        -12.9910    1.1880   21.8260 O.2   139  VAL139     -0.2867
     73  CB       -10.7440    2.1140   19.9240 C.3   139  VAL139      0.0252
     74  CG1      -10.8930    1.1080   18.7810 C.3   139  VAL139      0.0019
     75  CG2       -9.7300    3.1840   19.5450 C.3   139  VAL139      0.0019
     76  N         -3.1030    2.8760   21.3870 N.3   194  LEU194     -0.1231
     77  CA        -3.2980    2.4170   20.0140 C.3   194  LEU194      0.1693
     78  C         -2.5270    1.1160   20.0220 C.2   194  LEU194      0.2593
     79  O         -1.5520    0.9870   20.7740 O.2   194  LEU194     -0.2718
     80  CB        -2.6230    3.3630   19.0250 C.3   194  LEU194      0.0284
     81  CG        -3.2430    4.7510   18.9400 C.3   194  LEU194      0.0019
     82  CD1       -2.3480    5.6450   18.0870 C.3   194  LEU194      0.0001
     83  CD2       -4.6510    4.6360   18.3650 C.3   194  LEU194      0.0001
     84  N         -2.9340    0.1590   19.2000 N.am  195  THR195     -0.1939
     85  CA        -2.2380   -1.1140   19.1640 C.3   195  THR195      0.2028
     86  C         -1.1560   -1.2120   18.0910 C.2   195  THR195      0.2643
     87  O         -0.5830   -2.2850   17.8760 O.2   195  THR195     -0.2714
     88  CB        -3.2130   -2.2770   19.0340 C.3   195  THR195      0.1808
     89  OG1       -3.9710   -2.1220   17.8320 O.3   195  THR195     -0.2208
     90  CG2       -4.1650   -2.3140   20.2350 C.3   195  THR195      0.0379
     91  N         -0.8980   -0.1070   17.3950 N.am  196  THR196     -0.1937
     92  CA         0.1470   -0.0660   16.3700 C.3   196  THR196      0.2013
     93  C          0.9030    1.2340   16.6040 C.2   196  THR196      0.2484
     94  O          0.3960    2.1400   17.2870 O.2   196  THR196     -0.2729
     95  CB        -0.4180    0.0140   14.9240 C.3   196  THR196      0.1807
     96  OG1       -1.2050    1.2010   14.7900 O.3   196  THR196     -0.2208
     97  CG2       -1.2520   -1.1970   14.5670 C.3   196  THR196      0.0379
     98  N          2.1490    1.3280   16.1020 N.am  197  PRO197     -0.2715
     99  CA         2.9040    2.5680   16.2900 C.3   197  PRO197      0.1521
    100  C          2.0630    3.7110   15.7300 C.2   197  PRO197      0.2440
    101  O          1.3810    3.5400   14.7160 O.2   197  PRO197     -0.2731
    102  CB         4.1550    2.3170   15.4540 C.3   197  PRO197      0.0310
    103  CG         4.3970    0.8650   15.6820 C.3   197  PRO197      0.0237
    104  CD         3.0030    0.2840   15.5080 C.3   197  PRO197      0.0939
    105  N          2.1610    4.9130   16.3220 N.am  198  PRO198     -0.2727
    106  CA         2.9740    5.3550   17.4610 C.3   198  PRO198      0.1402
    107  C          2.6100    4.8560   18.8760 C.2   198  PRO198      0.2269
    108  O          3.1950    5.3090   19.8550 O.2   198  PRO198     -0.2865
    109  CB         2.9010    6.8740   17.3420 C.3   198  PRO198      0.0296
    110  CG         1.5100    7.0920   16.8380 C.3   198  PRO198      0.0237
    111  CD         1.3390    6.0220   15.7980 C.3   198  PRO198      0.0939
    112  N          0.3180    5.5040   20.9420 N.3   200  LEU200     -0.1245
    113  CA        -0.0510    6.5720   21.8660 C.3   200  LEU200      0.1561
    114  C         -1.0900    6.1400   22.9040 C.2   200  LEU200      0.2260
    115  O         -2.0850    5.4860   22.5850 O.2   200  LEU200     -0.2867
    116  CB        -0.5400    7.7960   21.0850 C.3   200  LEU200      0.0270
    117  CG         0.4930    8.2890   20.0630 C.3   200  LEU200      0.0019
    118  CD1       -0.0500    9.4720   19.3000 C.3   200  LEU200      0.0001
    119  CD2        1.7850    8.6590   20.7620 C.3   200  LEU200      0.0001
    120  N        -10.6610    2.2570   25.9020 N.3   205  TRP205     -0.1241
    121  CA       -11.1090    1.0920   25.1770 C.3   205  TRP205      0.1605
    122  C        -12.4580    0.6310   25.6700 C.2   205  TRP205      0.2264
    123  O        -12.7170    0.6280   26.8700 O.2   205  TRP205     -0.2867
    124  CB       -10.0980   -0.0360   25.3170 C.3   205  TRP205      0.0550
    125  CG        -9.0230    0.0400   24.3090 C.ar  205  TRP205      0.0003
    126  CD1       -7.7790    0.5940   24.4630 C.ar  205  TRP205      0.0946
    127  CD2       -9.0860   -0.4480   22.9640 C.ar  205  TRP205      0.0152
    128  NE1       -7.0690    0.4800   23.2920 N.ar  205  TRP205     -0.2442
    129  CE2       -7.8440   -0.1570   22.3570 C.ar  205  TRP205      0.0810
    130  CE3      -10.0750   -1.1040   22.2110 C.ar  205  TRP205      0.0012
    131  CZ2       -7.5610   -0.5030   21.0320 C.ar  205  TRP205      0.0191
    132  CZ3       -9.7950   -1.4460   20.8980 C.ar  205  TRP205      0.0001
    133  CH2       -8.5440   -1.1440   20.3220 C.ar  205  TRP205      0.0015
@<TRIPOS>BOND
     1     5     2    1
     2     5     6    1
     3    11    14    1
     4    11    10    1
     5    11    12    1
     6    14    15    1
     7     2     3    1
     8     2     1    1
     9     6     7    1
    10     9     7   am
    11     7     8    2
    12    12    13    2
    13     3     4    2
    14    15    16   ar
    15    15    17   ar
    16    20    21    1
    17    16    18   ar
    18    22    21    1
    19    22    23    2
    20    21    24    1
    21    17    19   ar
    22    18    19   ar
    23    33    32    2
    24    24    25    1
    25    26    25   ar
    26    26    28   ar
    27    51    52    1
    28    51    48    1
    29    54    52   ar
    30    54    56   ar
    31    25    27   ar
    32    28    29   ar
    33    52    53   ar
    34    97    95    1
    35    56    57   ar
    36    27    29   ar
    37   101   100    2
    38    96    95    1
    39    95    92    1
    40    30    31    1
    41    43    42    2
    42    47    48    1
    43    53    55   ar
    44    32    31    1
    45    46    44    1
    46    57    55   ar
    47    58    59    1
    48    58    49   am
    49    44    41    1
    50    44    45    1
    51    40    41    1
    52    48    49    1
    53   102   103    1
    54   102    99    1
    55   104   103    1
    56   104    98    1
    57    59    60    1
    58   100    99    1
    59   100   105   am
    60    31    34    1
    61   111   105    1
    62   111   110    1
    63    34    35    1
    64    49    50    2
    65    41    42    1
    66    98    99    1
    67    98    93   am
    68   105   106    1
    69    92    93    1
    70    92    91    1
    71    93    94    2
    72    36    35   ar
    73    36    38   ar
    74    35    37   ar
    75   110   109    1
    76    60    61    2
    77   109   106    1
    78    91    86   am
    79   106   107    1
    80    38    39   ar
    81    37    39   ar
    82    68    66    1
    83    89    88    1
    84    87    86    2
    85    67    66    1
    86    82    81    1
    87    86    85    1
    88    83    81    1
    89    66    63    1
    90    74    73    1
    91   107   108    2
    92    81    80    1
    93    80    77    1
    94    88    85    1
    95    88    90    1
    96    85    84    1
    97    84    78   am
    98   118   117    1
    99    75    73    1
   100    62    63    1
   101    73    70    1
   102    63    64    1
   103    77    78    1
   104    77    76    1
   105    78    79    2
   106   117   119    1
   107   117   116    1
   108    70    71    1
   109    70    69    1
   110   133   132   ar
   111   133   131   ar
   112    71    72    2
   113   132   130   ar
   114    64    65    2
   115   112   113    1
   116   131   129   ar
   117   116   113    1
   118   113   114    1
   119   130   127   ar
   120   129   127   ar
   121   129   128   ar
   122   115   114    2
   123   127   125   ar
   124   128   126   ar
   125   125   126   ar
   126   125   124    1
   127   121   124    1
   128   121   122    1
   129   121   120    1
   130   122   123    2
