@<TRIPOS>MOLECULE
tmp/1bntA00.pdb
 171 166 0 0 0
SMALL
GASTEIGER

@<TRIPOS>ATOM
      1  N          8.2690   -0.4010   10.6460 N.3     2  TRP2       -0.1241
      2  CA         7.4840   -1.3920   11.3680 C.3     2  TRP2        0.1605
      3  C          6.4810   -2.1720   10.5350 C.2     2  TRP2        0.2264
      4  O          5.9160   -1.6760    9.5510 O.2     2  TRP2       -0.2867
      5  CB         6.7630   -0.6830   12.5350 C.3     2  TRP2        0.0550
      6  CG         5.4780    0.0640   12.1580 C.ar    2  TRP2        0.0003
      7  CD1        5.5030    1.3650   11.7320 C.ar    2  TRP2        0.0946
      8  CD2        4.1990   -0.4550   12.2020 C.ar    2  TRP2        0.0152
      9  NE1        4.2460    1.6720   11.5110 N.ar    2  TRP2       -0.2442
     10  CE2        3.4380    0.6310   11.7720 C.ar    2  TRP2        0.0810
     11  CE3        3.5830   -1.6580   12.5390 C.ar    2  TRP2        0.0012
     12  CZ2        2.0500    0.5360   11.6770 C.ar    2  TRP2        0.0191
     13  CZ3        2.1940   -1.7600   12.4430 C.ar    2  TRP2        0.0001
     14  CH2        1.4360   -0.6690   12.0150 C.ar    2  TRP2        0.0015
     15  N         -3.4450    0.2670    3.6010 N.3    59  ASN59      -0.1240
     16  CA        -2.3410    1.1260    4.0230 C.3    59  ASN59       0.1653
     17  C         -1.0540    0.3740    4.3780 C.2    59  ASN59       0.2266
     18  O         -0.1810    0.8890    5.0750 O.2    59  ASN59      -0.2867
     19  CB        -2.8070    1.9730    5.2090 C.3    59  ASN59       0.1155
     20  CG        -3.1000    1.1890    6.4740 C.2    59  ASN59       0.2627
     21  OD1       -2.7630    0.0200    6.6550 O.2    59  ASN59      -0.2716
     22  ND2       -3.7600    1.7980    7.4310 N.am   59  ASN59      -0.0877
     23  N         -8.5260    0.4490    5.7610 N.3    64  ASN64      -0.1240
     24  CA        -9.3420    1.3120    6.5820 C.3    64  ASN64       0.1653
     25  C        -10.5120    1.8120    5.7600 C.2    64  ASN64       0.2266
     26  O        -10.3720    2.0110    4.5460 O.2    64  ASN64      -0.2867
     27  CB        -8.5430    2.5100    7.0720 C.3    64  ASN64       0.1155
     28  CG        -7.4340    2.1970    8.0640 C.2    64  ASN64       0.2627
     29  OD1       -6.6330    3.0710    8.3670 O.2    64  ASN64      -0.2716
     30  ND2       -7.2570    1.0150    8.6210 N.am   64  ASN64      -0.0877
     31  N        -12.7010    6.3220   11.2950 N.3    89  GLN89      -0.1245
     32  CA       -12.4260    5.1630   10.4470 C.3    89  GLN89       0.1566
     33  C        -12.6190    3.8610   11.2040 C.2    89  GLN89       0.2260
     34  O        -12.7540    3.8870   12.4380 O.2    89  GLN89      -0.2867
     35  CB       -10.9680    5.1860    9.8750 C.3    89  GLN89       0.0367
     36  CG        -9.7900    5.3870   10.8360 C.3    89  GLN89       0.0905
     37  CD        -9.0700    4.1330   11.2950 C.2    89  GLN89       0.2608
     38  OE1       -9.5570    3.0250   11.1750 O.2    89  GLN89      -0.2717
     39  NE2       -7.8730    4.2280   11.8370 N.am   89  GLN89      -0.0878
     40  N        -11.2190   -0.4230   11.0230 N.3    91  HIS91      -0.1241
     41  CA       -10.3220   -1.4010   10.4390 C.3    91  HIS91       0.1621
     42  C        -10.4550   -2.6990   11.2170 C.2    91  HIS91       0.2264
     43  O        -11.2290   -2.8210   12.1810 O.2    91  HIS91      -0.2867
     44  CB        -8.8630   -0.9160   10.5160 C.3    91  HIS91       0.0745
     45  CG        -8.3910   -0.4950   11.9060 C.ar   91  HIS91       0.0817
     46  ND1       -8.4950    0.7140   12.4360 N.ar   91  HIS91      -0.2268
     47  CD2       -7.7770   -1.3030   12.8240 C.ar   91  HIS91       0.1154
     48  CE1       -7.9710    0.6830   13.6260 C.ar   91  HIS91       0.1986
     49  NE2       -7.5400   -0.5390   13.8550 N.ar   91  HIS91      -0.2212
     50  N         -8.1300   -6.4070   12.5030 N.3    93  HIS93      -0.1241
     51  CA        -6.9080   -7.1410   12.7520 C.3    93  HIS93       0.1621
     52  C         -7.3930   -8.5650   12.5740 C.2    93  HIS93       0.2264
     53  O         -8.4840   -8.8740   13.0900 O.2    93  HIS93      -0.2867
     54  CB        -6.4310   -6.9120   14.1880 C.3    93  HIS93       0.0745
     55  CG        -6.0050   -5.4640   14.3640 C.ar   93  HIS93       0.0817
     56  ND1       -4.8100   -4.9360   14.1450 N.ar   93  HIS93      -0.2268
     57  CD2       -6.8320   -4.4490   14.7650 C.ar   93  HIS93       0.1154
     58  CE1       -4.8970   -3.6520   14.4080 C.ar   93  HIS93       0.1986
     59  NE2       -6.1160   -3.3680   14.7800 N.ar   93  HIS93      -0.2212
     60  N        -12.0890   -2.5270   14.9320 N.3   116  HIS116     -0.1241
     61  CA       -11.8710   -1.3380   15.7010 C.3   116  HIS116      0.1621
     62  C        -12.5190   -0.1610   15.0120 C.2   116  HIS116      0.2264
     63  O        -12.2200    0.1740   13.8580 O.2   116  HIS116     -0.2867
     64  CB       -10.3910   -1.0760   15.8430 C.3   116  HIS116      0.0745
     65  CG        -9.6340   -2.0860   16.6880 C.ar  116  HIS116      0.0817
     66  ND1       -8.3450   -2.3970   16.6100 N.ar  116  HIS116     -0.2268
     67  CD2      -10.1890   -2.8070   17.7020 C.ar  116  HIS116      0.1154
     68  CE1       -8.1030   -3.2690   17.5450 C.ar  116  HIS116      0.1986
     69  NE2       -9.2110   -3.5000   18.1860 N.ar  116  HIS116     -0.2212
     70  N        -12.6990    3.6190   15.3720 N.3   118  VAL118     -0.1245
     71  CA       -11.8860    4.6460   16.0020 C.3   118  VAL118      0.1561
     72  C        -12.6260    5.9620   16.0650 C.2   118  VAL118      0.2260
     73  O        -13.1890    6.4240   15.0570 O.2   118  VAL118     -0.2867
     74  CB       -10.5680    4.8090   15.2150 C.3   118  VAL118      0.0252
     75  CG1       -9.6110    5.7650   15.9520 C.3   118  VAL118      0.0019
     76  CG2       -9.9020    3.4540   15.0740 C.3   118  VAL118      0.0019
     77  N         -8.5390   15.5270   15.0450 N.3   127  PHE127     -0.1227
     78  CA        -7.8960   14.2620   15.3470 C.3   127  PHE127      0.1736
     79  C         -6.4720   14.4480   15.8530 C.2   127  PHE127      0.2596
     80  O         -6.0490   13.8910   16.8730 O.2   127  PHE127     -0.2718
     81  CB        -7.9400   13.4020   14.0610 C.3   127  PHE127      0.0547
     82  CG        -7.4940   11.9860   14.3220 C.ar  127  PHE127     -0.0202
     83  CD1       -8.3440   11.1150   14.9850 C.ar  127  PHE127     -0.0042
     84  CD2       -6.2130   11.5780   13.9630 C.ar  127  PHE127     -0.0042
     85  CE1       -7.9140    9.8330   15.3110 C.ar  127  PHE127     -0.0003
     86  CE2       -5.7820   10.2940   14.2940 C.ar  127  PHE127     -0.0003
     87  CZ        -6.6320    9.4220   14.9690 C.ar  127  PHE127     -0.0000
     88  N         -5.7580   15.3130   15.1390 N.am  128  GLY128     -0.1957
     89  CA        -4.3700   15.6090   15.4560 C.3   128  GLY128      0.1869
     90  C         -4.2110   16.0660   16.8920 C.2   128  GLY128      0.2309
     91  O         -3.3530   15.5580   17.5950 O.2   128  GLY128     -0.2863
     92  N         -4.9960   13.1330   19.6340 N.3   131  VAL131     -0.1245
     93  CA        -3.9860   12.1480   19.9740 C.3   131  VAL131      0.1561
     94  C         -2.9220   12.7440   20.8910 C.2   131  VAL131      0.2260
     95  O         -1.9480   12.0870   21.2320 O.2   131  VAL131     -0.2867
     96  CB        -3.3370   11.5430   18.6760 C.3   131  VAL131      0.0252
     97  CG1       -4.4600   10.8930   17.8920 C.3   131  VAL131      0.0019
     98  CG2       -2.6130   12.5610   17.8150 C.3   131  VAL131      0.0019
     99  N         -8.9980    9.5310   22.4050 N.3   137  LEU137     -0.1245
    100  CA        -9.6450    8.6190   21.4850 C.3   137  LEU137      0.1561
    101  C        -10.4770    7.6020   22.2470 C.2   137  LEU137      0.2260
    102  O        -10.1670    7.3040   23.4110 O.2   137  LEU137     -0.2867
    103  CB        -8.6200    7.8510   20.6790 C.3   137  LEU137      0.0270
    104  CG        -7.5660    8.5890   19.8650 C.3   137  LEU137      0.0019
    105  CD1       -6.6470    7.5690   19.2260 C.3   137  LEU137      0.0001
    106  CD2       -8.2160    9.4420   18.7940 C.3   137  LEU137      0.0001
    107  N        -11.9580    3.7180   21.2890 N.3   139  VAL139     -0.1245
    108  CA       -12.0290    2.7760   20.1910 C.3   139  VAL139      0.1561
    109  C        -12.9920    1.7260   20.7240 C.2   139  VAL139      0.2260
    110  O        -12.9210    1.3070   21.8890 O.2   139  VAL139     -0.2867
    111  CB       -10.6160    2.1460   19.8530 C.3   139  VAL139      0.0252
    112  CG1      -10.7580    1.2620   18.6210 C.3   139  VAL139      0.0019
    113  CG2       -9.5750    3.1970   19.4870 C.3   139  VAL139      0.0019
    114  N         -3.0930    2.9710   21.4070 N.3   194  LEU194     -0.1231
    115  CA        -3.2040    2.4550   20.0410 C.3   194  LEU194      0.1693
    116  C         -2.4680    1.1070   20.0570 C.2   194  LEU194      0.2593
    117  O         -1.5970    0.9220   20.9240 O.2   194  LEU194     -0.2718
    118  CB        -2.5050    3.3780   19.0570 C.3   194  LEU194      0.0284
    119  CG        -2.9500    4.8250   19.0140 C.3   194  LEU194      0.0019
    120  CD1       -2.1310    5.5920   17.9970 C.3   194  LEU194      0.0001
    121  CD2       -4.4020    4.8800   18.6390 C.3   194  LEU194      0.0001
    122  N         -2.7750    0.1540   19.1870 N.am  195  THR195     -0.1939
    123  CA        -2.0900   -1.1210   19.2250 C.3   195  THR195      0.2028
    124  C         -1.0870   -1.2710   18.0950 C.2   195  THR195      0.2643
    125  O         -0.5480   -2.3630   17.8640 O.2   195  THR195     -0.2714
    126  CB        -3.1120   -2.2410   19.1520 C.3   195  THR195      0.1808
    127  OG1       -3.7650   -2.0500   17.9060 O.3   195  THR195     -0.2208
    128  CG2       -4.1430   -2.2450   20.2750 C.3   195  THR195      0.0379
    129  N         -0.9320   -0.2180   17.2900 N.am  196  THR196     -0.1937
    130  CA         0.0950   -0.1840   16.2930 C.3   196  THR196      0.2013
    131  C          0.9250    1.0630   16.6330 C.2   196  THR196      0.2484
    132  O          0.4640    1.9360   17.3880 O.2   196  THR196     -0.2729
    133  CB        -0.5140   -0.0900   14.8590 C.3   196  THR196      0.1807
    134  OG1       -0.9900    1.2270   14.6840 O.3   196  THR196     -0.2208
    135  CG2       -1.6530   -1.0720   14.6250 C.3   196  THR196      0.0379
    136  N          2.1740    1.2180   16.1670 N.am  197  PRO197     -0.2715
    137  CA         2.8880    2.4810   16.1440 C.3   197  PRO197      0.1521
    138  C          1.9770    3.5970   15.6810 C.2   197  PRO197      0.2440
    139  O          1.2600    3.3840   14.7070 O.2   197  PRO197     -0.2731
    140  CB         4.0400    2.2180   15.2220 C.3   197  PRO197      0.0310
    141  CG         4.3960    0.8030   15.6110 C.3   197  PRO197      0.0237
    142  CD         3.0180    0.1560   15.6440 C.3   197  PRO197      0.0939
    143  N          1.9530    4.7890   16.2690 N.am  198  PRO198     -0.2727
    144  CA         2.8460    5.2040   17.3410 C.3   198  PRO198      0.1402
    145  C          2.5780    4.7640   18.7790 C.2   198  PRO198      0.2269
    146  O          3.2550    5.2570   19.6790 O.2   198  PRO198     -0.2865
    147  CB         2.8730    6.7010   17.1730 C.3   198  PRO198      0.0296
    148  CG         1.4720    7.0260   16.7100 C.3   198  PRO198      0.0237
    149  CD         1.2590    5.9300   15.6740 C.3   198  PRO198      0.0939
    150  N          0.5030    5.4860   21.0910 N.3   200  LEU200     -0.1245
    151  CA         0.1560    6.5640   22.0150 C.3   200  LEU200      0.1561
    152  C         -0.9260    6.1420   23.0040 C.2   200  LEU200      0.2260
    153  O         -1.8790    5.4380   22.6460 O.2   200  LEU200     -0.2867
    154  CB        -0.3250    7.7690   21.2100 C.3   200  LEU200      0.0270
    155  CG         0.6650    8.2710   20.1540 C.3   200  LEU200      0.0019
    156  CD1        0.0230    9.3550   19.3240 C.3   200  LEU200      0.0001
    157  CD2        1.8970    8.8140   20.8230 C.3   200  LEU200      0.0001
    158  N        -10.5960    2.2330   25.9030 N.3   205  TRP205     -0.1241
    159  CA       -11.0200    1.0800   25.1570 C.3   205  TRP205      0.1605
    160  C        -12.3570    0.6170   25.6650 C.2   205  TRP205      0.2264
    161  O        -12.5940    0.5500   26.8830 O.2   205  TRP205     -0.2867
    162  CB       -10.0090   -0.0340   25.3040 C.3   205  TRP205      0.0550
    163  CG        -8.9510    0.0790   24.2290 C.ar  205  TRP205      0.0003
    164  CD1       -7.7400    0.6780   24.4590 C.ar  205  TRP205      0.0946
    165  CD2       -9.0950   -0.3990   22.9530 C.ar  205  TRP205      0.0152
    166  NE1       -7.1110    0.5760   23.3140 N.ar  205  TRP205     -0.2442
    167  CE2       -7.8650   -0.0570   22.4000 C.ar  205  TRP205      0.0810
    168  CE3      -10.0720   -1.0640   22.1970 C.ar  205  TRP205      0.0012
    169  CZ2       -7.5770   -0.3780   21.0770 C.ar  205  TRP205      0.0191
    170  CZ3       -9.7830   -1.3800   20.8790 C.ar  205  TRP205      0.0001
    171  CH2       -8.5440   -1.0400   20.3260 C.ar  205  TRP205      0.0015
@<TRIPOS>BOND
     1    15    16    1
     2    16    17    1
     3    16    19    1
     4    17    18    2
     5    26    25    2
     6    19    20    1
     7    25    24    1
     8    23    24    1
     9    20    21    2
    10    20    22   am
    11    24    27    1
    12    27    28    1
    13    28    29    2
    14    28    30   am
    15     4     3    2
    16    35    32    1
    17    35    36    1
    18    41    44    1
    19    41    40    1
    20    41    42    1
    21    32    33    1
    22    32    31    1
    23    44    45    1
    24     3     2    1
    25     1     2    1
    26    36    37    1
    27    38    37    2
    28    33    34    2
    29    42    43    2
    30    37    39   am
    31     2     5    1
    32     9     7   ar
    33     9    10   ar
    34    12    10   ar
    35    12    14   ar
    36     7     6   ar
    37    10     8   ar
    38    45    46   ar
    39    45    47   ar
    40    14    13   ar
    41     6     8   ar
    42     6     5    1
    43     8    11   ar
    44    46    48   ar
    45    13    11   ar
    46    50    51    1
    47    52    51    1
    48    52    53    2
    49    51    54    1
    50    47    49   ar
    51    48    49   ar
    52    63    62    2
    53    84    86   ar
    54    84    82   ar
    55    81    82    1
    56    81    78    1
    57    56    55   ar
    58    56    58   ar
    59    54    55    1
    60    86    87   ar
    61    82    83   ar
    62    55    57   ar
    63    58    59   ar
    64   135   133    1
    65   134   133    1
    66   139   138    2
    67    57    59   ar
    68   133   130    1
    69    60    61    1
    70    87    85   ar
    71    83    85   ar
    72    62    61    1
    73    77    78    1
    74    73    72    2
    75    76    74    1
    76    88    89    1
    77    88    79   am
    78    74    75    1
    79    74    71    1
    80   140   141    1
    81   140   137    1
    82    78    79    1
    83    70    71    1
    84    89    90    1
    85   141   142    1
    86   142   136    1
    87   149   143    1
    88   149   148    1
    89   138   137    1
    90   138   143   am
    91    61    64    1
    92    64    65    1
    93    79    80    2
    94    71    72    1
    95   137   136    1
    96   136   131   am
    97   143   144    1
    98   130   131    1
    99   130   129    1
   100    66    65   ar
   101    66    68   ar
   102   131   132    2
   103    65    67   ar
   104   148   147    1
   105    90    91    2
   106   147   144    1
   107   129   124   am
   108   144   145    1
   109    68    69   ar
   110    67    69   ar
   111    98    96    1
   112   125   124    2
   113    97    96    1
   114   127   126    1
   115   120   119    1
   116   124   123    1
   117   112   111    1
   118   121   119    1
   119    96    93    1
   120   145   146    2
   121   106   104    1
   122   119   118    1
   123   118   115    1
   124   126   123    1
   125   126   128    1
   126   122   123    1
   127   122   116   am
   128   105   104    1
   129   156   155    1
   130   113   111    1
   131    92    93    1
   132   111   108    1
   133   104   103    1
   134    93    94    1
   135   115   116    1
   136   115   114    1
   137   116   117    2
   138   155   157    1
   139   155   154    1
   140   108   109    1
   141   108   107    1
   142   171   170   ar
   143   171   169   ar
   144   103   100    1
   145   109   110    2
   146   170   168   ar
   147    94    95    2
   148   169   167   ar
   149   150   151    1
   150   154   151    1
   151   100   101    1
   152   100    99    1
   153   151   152    1
   154   168   165   ar
   155   101   102    2
   156   167   165   ar
   157   167   166   ar
   158   153   152    2
   159   165   163   ar
   160   166   164   ar
   161   163   164   ar
   162   163   162    1
   163   159   162    1
   164   159   160    1
   165   159   158    1
   166   160   161    2
