@<TRIPOS>MOLECULE
tmp/1bnuA00.pdb
 177 173 0 0 0
SMALL
GASTEIGER

@<TRIPOS>ATOM
      1  N          8.2500   -0.3470   10.6600 N.3     2  TRP2       -0.1241
      2  CA         7.5740   -1.3620   11.4390 C.3     2  TRP2        0.1605
      3  C          6.6400   -2.1770   10.5850 C.2     2  TRP2        0.2264
      4  O          6.3270   -1.7590    9.4630 O.2     2  TRP2       -0.2867
      5  CB         6.8130   -0.6690   12.5750 C.3     2  TRP2        0.0550
      6  CG         5.5690    0.1150   12.1850 C.ar    2  TRP2        0.0003
      7  CD1        5.6530    1.4300   11.8150 C.ar    2  TRP2        0.0946
      8  CD2        4.2780   -0.3730   12.1620 C.ar    2  TRP2        0.0152
      9  NE1        4.4150    1.7870   11.5610 N.ar    2  TRP2       -0.2442
     10  CE2        3.5620    0.7560   11.7440 C.ar    2  TRP2        0.0810
     11  CE3        3.6050   -1.5700   12.4190 C.ar    2  TRP2        0.0012
     12  CZ2        2.1720    0.6980   11.5780 C.ar    2  TRP2        0.0191
     13  CZ3        2.2190   -1.6180   12.2540 C.ar    2  TRP2        0.0001
     14  CH2        1.5010   -0.4940   11.8360 C.ar    2  TRP2        0.0015
     15  N         -0.8140   -2.0170    6.3370 N.3    61  HIS61      -0.1241
     16  CA        -0.9100   -2.8250    7.5430 C.3    61  HIS61       0.1621
     17  C         -2.3240   -3.3150    7.8190 C.2    61  HIS61       0.2264
     18  O         -2.5340   -4.2720    8.5580 O.2    61  HIS61      -0.2867
     19  CB        -0.3790   -2.0420    8.7480 C.3    61  HIS61       0.0745
     20  CG        -1.0710   -0.7560    9.1870 C.ar   61  HIS61       0.0817
     21  ND1       -0.5990    0.4850    9.0410 N.ar   61  HIS61      -0.2268
     22  CD2       -2.2860   -0.6630    9.8570 C.ar   61  HIS61       0.1154
     23  CE1       -1.4700    1.3090    9.6010 C.ar   61  HIS61       0.1986
     24  NE2       -2.4770    0.6100   10.0870 N.ar   61  HIS61      -0.2212
     25  N         -8.5630    0.3930    5.8260 N.3    64  ASN64      -0.1240
     26  CA        -9.3700    1.2950    6.6250 C.3    64  ASN64       0.1653
     27  C        -10.5580    1.8090    5.8540 C.2    64  ASN64       0.2266
     28  O        -10.3910    2.0880    4.6660 O.2    64  ASN64      -0.2867
     29  CB        -8.5820    2.5080    7.0370 C.3    64  ASN64       0.1155
     30  CG        -7.3740    2.2170    7.8970 C.2    64  ASN64       0.2627
     31  OD1       -6.5380    3.0940    8.0850 O.2    64  ASN64      -0.2716
     32  ND2       -7.1720    1.0380    8.4580 N.am   64  ASN64      -0.0877
     33  N        -14.1380    8.3240   12.8300 N.3    88  ILE88      -0.1231
     34  CA       -13.3160    8.7450   11.7320 C.3    88  ILE88       0.1692
     35  C        -12.9730    7.5720   10.7940 C.2    88  ILE88       0.2591
     36  O        -12.7850    7.7870    9.5960 O.2    88  ILE88      -0.2718
     37  CB       -12.0430    9.4200   12.3260 C.3    88  ILE88       0.0266
     38  CG1      -11.1840    9.8880   11.1640 C.3    88  ILE88       0.0019
     39  CG2      -11.2320    8.4850   13.2170 C.3    88  ILE88       0.0020
     40  CD1       -9.9230   10.6520   11.5980 C.3    88  ILE88       0.0001
     41  N        -12.8220    6.3310   11.2520 N.am   89  GLN89      -0.1979
     42  CA       -12.4640    5.2120   10.4000 C.3    89  GLN89       0.1601
     43  C        -12.6910    3.9410   11.1640 C.2    89  GLN89       0.2287
     44  O        -12.9180    4.0050   12.3890 O.2    89  GLN89      -0.2864
     45  CB       -10.9820    5.2860    9.9510 C.3    89  GLN89       0.0394
     46  CG        -9.8790    5.2940   11.0160 C.3    89  GLN89       0.0908
     47  CD        -9.0940    3.9970   11.0740 C.2    89  GLN89       0.2608
     48  OE1       -9.6470    2.9190   11.1430 O.2    89  GLN89      -0.2717
     49  NE2       -7.7870    3.9800   10.9790 N.am   89  GLN89      -0.0878
     50  N        -11.3070   -0.4030   11.0240 N.3    91  HIS91      -0.1241
     51  CA       -10.3790   -1.3550   10.4200 C.3    91  HIS91       0.1621
     52  C        -10.4560   -2.6420   11.2020 C.2    91  HIS91       0.2264
     53  O        -11.1670   -2.7290   12.2050 O.2    91  HIS91      -0.2867
     54  CB        -8.9090   -0.8770   10.4510 C.3    91  HIS91       0.0745
     55  CG        -8.4250   -0.4290   11.8270 C.ar   91  HIS91       0.0817
     56  ND1       -8.6940    0.7200   12.4270 N.ar   91  HIS91      -0.2268
     57  CD2       -7.6680   -1.1690   12.6910 C.ar   91  HIS91       0.1154
     58  CE1       -8.1420    0.7090   13.6110 C.ar   91  HIS91       0.1986
     59  NE2       -7.5220   -0.4370   13.7700 N.ar   91  HIS91      -0.2212
     60  N         -8.2460   -6.3850   12.4960 N.3    93  HIS93      -0.1241
     61  CA        -7.0090   -7.1140   12.7370 C.3    93  HIS93       0.1621
     62  C         -7.4560   -8.5530   12.6160 C.2    93  HIS93       0.2264
     63  O         -8.4890   -8.8960   13.2110 O.2    93  HIS93      -0.2867
     64  CB        -6.4830   -6.8090   14.1510 C.3    93  HIS93       0.0745
     65  CG        -5.9780   -5.3740   14.2550 C.ar   93  HIS93       0.0817
     66  ND1       -4.8220   -4.8740   13.8430 N.ar   93  HIS93      -0.2268
     67  CD2       -6.6910   -4.3480   14.8030 C.ar   93  HIS93       0.1154
     68  CE1       -4.8200   -3.6020   14.1330 C.ar   93  HIS93       0.1986
     69  NE2       -5.9510   -3.2800   14.7190 N.ar   93  HIS93      -0.2212
     70  N        -12.0840   -2.4880   14.9700 N.3   116  HIS116     -0.1241
     71  CA       -11.9370   -1.3060   15.7610 C.3   116  HIS116      0.1621
     72  C        -12.5940   -0.1200   15.0830 C.2   116  HIS116      0.2264
     73  O        -12.2060    0.2780   13.9830 O.2   116  HIS116     -0.2867
     74  CB       -10.4520   -0.9750   15.9910 C.3   116  HIS116      0.0745
     75  CG        -9.6160   -1.9990   16.7670 C.ar  116  HIS116      0.0817
     76  ND1       -8.3070   -2.2280   16.6290 N.ar  116  HIS116     -0.2268
     77  CD2      -10.1100   -2.8620   17.7040 C.ar  116  HIS116      0.1154
     78  CE1       -8.0070   -3.1970   17.4470 C.ar  116  HIS116      0.1986
     79  NE2       -9.0920   -3.5680   18.0760 N.ar  116  HIS116     -0.2212
     80  N        -12.7750    3.6940   15.3490 N.3   118  VAL118     -0.1245
     81  CA       -11.9540    4.6920   16.0130 C.3   118  VAL118      0.1561
     82  C        -12.6550    6.0320   16.0570 C.2   118  VAL118      0.2260
     83  O        -13.1660    6.5120   15.0330 O.2   118  VAL118     -0.2867
     84  CB       -10.6000    4.7600   15.2570 C.3   118  VAL118      0.0252
     85  CG1       -9.6310    5.7820   15.8900 C.3   118  VAL118      0.0019
     86  CG2       -9.9940    3.3550   15.2790 C.3   118  VAL118      0.0019
     87  N         -8.5170   15.5800   14.9880 N.3   127  PHE127     -0.1241
     88  CA        -7.8920   14.3040   15.3040 C.3   127  PHE127      0.1605
     89  C         -6.4580   14.4450   15.8140 C.2   127  PHE127      0.2264
     90  O         -6.0500   13.8080   16.7820 O.2   127  PHE127     -0.2867
     91  CB        -7.9330   13.4340   14.0480 C.3   127  PHE127      0.0534
     92  CG        -7.4270   12.0390   14.3140 C.ar  127  PHE127     -0.0203
     93  CD1       -8.2270   11.1410   15.0080 C.ar  127  PHE127     -0.0042
     94  CD2       -6.1390   11.6820   13.9140 C.ar  127  PHE127     -0.0042
     95  CE1       -7.7370    9.8820   15.3170 C.ar  127  PHE127     -0.0003
     96  CE2       -5.6460   10.4170   14.2310 C.ar  127  PHE127     -0.0003
     97  CZ        -6.4490    9.5270   14.9310 C.ar  127  PHE127     -0.0000
     98  N         -4.9850   13.1660   19.5550 N.3   131  VAL131     -0.1245
     99  CA        -3.9390   12.2160   19.8900 C.3   131  VAL131      0.1561
    100  C         -2.8610   12.8550   20.7510 C.2   131  VAL131      0.2260
    101  O         -1.7990   12.2820   20.9410 O.2   131  VAL131     -0.2867
    102  CB        -3.2840   11.5730   18.6110 C.3   131  VAL131      0.0252
    103  CG1       -4.3660   10.7620   17.9360 C.3   131  VAL131      0.0019
    104  CG2       -2.7110   12.5690   17.6400 C.3   131  VAL131      0.0019
    105  N         -8.9490    9.6170   22.4280 N.3   137  LEU137     -0.1245
    106  CA        -9.6190    8.7080   21.5190 C.3   137  LEU137      0.1561
    107  C        -10.4550    7.6720   22.2340 C.2   137  LEU137      0.2260
    108  O        -10.1550    7.3640   23.3880 O.2   137  LEU137     -0.2867
    109  CB        -8.6320    7.9410   20.6540 C.3   137  LEU137      0.0270
    110  CG        -7.6160    8.6710   19.8100 C.3   137  LEU137      0.0019
    111  CD1       -6.8010    7.6480   19.0440 C.3   137  LEU137      0.0001
    112  CD2       -8.2960    9.6190   18.8630 C.3   137  LEU137      0.0001
    113  N        -11.9430    3.7820   21.2000 N.3   139  VAL139     -0.1245
    114  CA       -12.0140    2.8220   20.1360 C.3   139  VAL139      0.1561
    115  C        -12.9990    1.7960   20.6850 C.2   139  VAL139      0.2260
    116  O        -12.9680    1.4400   21.8750 O.2   139  VAL139     -0.2867
    117  CB       -10.6160    2.1870   19.8450 C.3   139  VAL139      0.0252
    118  CG1      -10.8040    1.2780   18.6230 C.3   139  VAL139      0.0019
    119  CG2       -9.5140    3.2050   19.4770 C.3   139  VAL139      0.0019
    120  N         -3.0780    3.0420   21.3630 N.3   194  LEU194     -0.1231
    121  CA        -3.1770    2.5540   19.9960 C.3   194  LEU194      0.1693
    122  C         -2.4470    1.2170   20.0050 C.2   194  LEU194      0.2593
    123  O         -1.4750    1.0680   20.7470 O.2   194  LEU194     -0.2718
    124  CB        -2.4440    3.4480   19.0310 C.3   194  LEU194      0.0284
    125  CG        -2.8950    4.8800   19.0010 C.3   194  LEU194      0.0019
    126  CD1       -1.9380    5.6700   18.1390 C.3   194  LEU194      0.0001
    127  CD2       -4.3400    4.9280   18.5400 C.3   194  LEU194      0.0001
    128  N         -2.8380    0.2470   19.1970 N.am  195  THR195     -0.1939
    129  CA        -2.1400   -0.9900   19.2210 C.3   195  THR195      0.2028
    130  C         -1.1430   -1.0690   18.1010 C.2   195  THR195      0.2643
    131  O         -0.5200   -2.1090   17.9270 O.2   195  THR195     -0.2714
    132  CB        -3.1500   -2.0980   19.1400 C.3   195  THR195      0.1808
    133  OG1       -3.7330   -2.0080   17.8520 O.3   195  THR195     -0.2208
    134  CG2       -4.2110   -2.0080   20.2160 C.3   195  THR195      0.0379
    135  N         -0.9800   -0.0390   17.2680 N.am  196  THR196     -0.1937
    136  CA         0.0720   -0.0450   16.2690 C.3   196  THR196      0.2013
    137  C          0.9110    1.2200   16.5520 C.2   196  THR196      0.2484
    138  O          0.4140    2.1370   17.2520 O.2   196  THR196     -0.2729
    139  CB        -0.5160    0.0020   14.8320 C.3   196  THR196      0.1807
    140  OG1       -1.0790    1.2940   14.6820 O.3   196  THR196     -0.2208
    141  CG2       -1.5900   -1.0480   14.5620 C.3   196  THR196      0.0379
    142  N          2.1820    1.3470   16.1170 N.am  197  PRO197     -0.2715
    143  CA         2.9430    2.5840   16.1730 C.3   197  PRO197      0.1521
    144  C          2.0810    3.7470   15.7320 C.2   197  PRO197      0.2440
    145  O          1.2800    3.5610   14.8130 O.2   197  PRO197     -0.2731
    146  CB         4.0940    2.3150   15.2870 C.3   197  PRO197      0.0310
    147  CG         4.4010    0.9120   15.6960 C.3   197  PRO197      0.0237
    148  CD         3.0270    0.2730   15.6350 C.3   197  PRO197      0.0939
    149  N          2.1520    4.9480   16.3150 N.am  198  PRO198     -0.2727
    150  CA         3.0690    5.3180   17.3820 C.3   198  PRO198      0.1402
    151  C          2.7090    4.8960   18.8010 C.2   198  PRO198      0.2269
    152  O          3.2970    5.4250   19.7440 O.2   198  PRO198     -0.2865
    153  CB         3.1840    6.8330   17.1860 C.3   198  PRO198      0.0296
    154  CG         1.7890    7.2510   16.7530 C.3   198  PRO198      0.0237
    155  CD         1.4370    6.1220   15.7850 C.3   198  PRO198      0.0939
    156  N          0.5510    5.5560   21.0920 N.3   200  LEU200     -0.1245
    157  CA         0.1990    6.6270   22.0030 C.3   200  LEU200      0.1561
    158  C         -0.8620    6.2020   22.9940 C.2   200  LEU200      0.2260
    159  O         -1.7940    5.4650   22.6500 O.2   200  LEU200     -0.2867
    160  CB        -0.2980    7.8210   21.1950 C.3   200  LEU200      0.0270
    161  CG         0.7030    8.3330   20.1570 C.3   200  LEU200      0.0019
    162  CD1        0.0780    9.4410   19.3360 C.3   200  LEU200      0.0001
    163  CD2        1.9430    8.8300   20.8520 C.3   200  LEU200      0.0001
    164  N        -10.6440    2.3500   25.8380 N.3   205  TRP205     -0.1241
    165  CA       -11.0560    1.1970   25.0880 C.3   205  TRP205      0.1605
    166  C        -12.4080    0.7250   25.5790 C.2   205  TRP205      0.2264
    167  O        -12.6080    0.6400   26.7970 O.2   205  TRP205     -0.2867
    168  CB       -10.0280    0.1260   25.2720 C.3   205  TRP205      0.0550
    169  CG        -8.9660    0.2090   24.2110 C.ar  205  TRP205      0.0003
    170  CD1       -7.7410    0.7770   24.4380 C.ar  205  TRP205      0.0946
    171  CD2       -9.0940   -0.2980   22.9510 C.ar  205  TRP205      0.0152
    172  NE1       -7.0770    0.6260   23.3090 N.ar  205  TRP205     -0.2442
    173  CE2       -7.8360   -0.0110   22.4110 C.ar  205  TRP205      0.0810
    174  CE3      -10.0800   -0.9550   22.2050 C.ar  205  TRP205      0.0012
    175  CZ2       -7.5190   -0.3770   21.1070 C.ar  205  TRP205      0.0191
    176  CZ3       -9.7660   -1.3180   20.9070 C.ar  205  TRP205      0.0001
    177  CH2       -8.5010   -1.0340   20.3660 C.ar  205  TRP205      0.0015
@<TRIPOS>BOND
     1    28    27    2
     2    25    26    1
     3    27    26    1
     4    15    16    1
     5    26    29    1
     6    29    30    1
     7    16    17    1
     8    16    19    1
     9    17    18    2
    10    30    31    2
    11    30    32   am
    12    19    20    1
    13    21    20   ar
    14    21    23   ar
    15    20    22   ar
    16     4     3    2
    17    36    35    2
    18    23    24   ar
    19    22    24   ar
    20    45    42    1
    21    45    46    1
    22    42    43    1
    23    42    41    1
    24    51    54    1
    25    51    50    1
    26    51    52    1
    27    54    55    1
    28     3     2    1
    29     1     2    1
    30    35    41   am
    31    35    34    1
    32    49    47   am
    33    46    47    1
    34    47    48    2
    35    43    44    2
    36    38    40    1
    37    38    37    1
    38    52    53    2
    39     2     5    1
    40     9    10   ar
    41     9     7   ar
    42    12    10   ar
    43    12    14   ar
    44    34    37    1
    45    34    33    1
    46    10     8   ar
    47     7     6   ar
    48    55    56   ar
    49    55    57   ar
    50    14    13   ar
    51     8     6   ar
    52     8    11   ar
    53     6     5    1
    54    13    11   ar
    55    37    39    1
    56    56    58   ar
    57    60    61    1
    58    62    61    1
    59    62    63    2
    60    57    59   ar
    61    61    64    1
    62    58    59   ar
    63    66    68   ar
    64    66    65   ar
    65    94    96   ar
    66    94    92   ar
    67    73    72    2
    68    91    92    1
    69    91    88    1
    70    68    69   ar
    71    64    65    1
    72    96    97   ar
    73    65    67   ar
    74    92    93   ar
    75   141   139    1
    76   140   139    1
    77    69    67   ar
    78   145   144    2
    79   139   136    1
    80    97    95   ar
    81    70    71    1
    82    87    88    1
    83    93    95   ar
    84    83    82    2
    85    72    71    1
    86    84    86    1
    87    84    85    1
    88    84    81    1
    89   146   147    1
    90   146   143    1
    91    88    89    1
    92    80    81    1
    93   148   147    1
    94   148   142    1
    95   144   143    1
    96   144   149   am
    97    71    74    1
    98   155   149    1
    99   155   154    1
   100    89    90    2
   101    74    75    1
   102    81    82    1
   103   142   143    1
   104   142   137   am
   105   136   137    1
   106   136   135    1
   107   149   150    1
   108   137   138    2
   109    76    75   ar
   110    76    78   ar
   111   154   153    1
   112    75    77   ar
   113   153   150    1
   114   135   130   am
   115   150   151    1
   116    78    79   ar
   117   104   102    1
   118    77    79   ar
   119   133   132    1
   120   131   130    2
   121   103   102    1
   122   130   129    1
   123   126   125    1
   124   127   125    1
   125   102    99    1
   126   118   117    1
   127   151   152    2
   128   112   110    1
   129   125   124    1
   130   124   121    1
   131   111   110    1
   132   132   129    1
   133   132   134    1
   134   128   129    1
   135   128   122   am
   136   162   161    1
   137   119   117    1
   138    98    99    1
   139   110   109    1
   140   117   114    1
   141    99   100    1
   142   121   122    1
   143   121   120    1
   144   122   123    2
   145   114   115    1
   146   114   113    1
   147   161   163    1
   148   161   160    1
   149   177   176   ar
   150   177   175   ar
   151   109   106    1
   152   115   116    2
   153   100   101    2
   154   176   174   ar
   155   156   157    1
   156   175   173   ar
   157   160   157    1
   158   106   107    1
   159   106   105    1
   160   157   158    1
   161   174   171   ar
   162   107   108    2
   163   173   171   ar
   164   173   172   ar
   165   159   158    2
   166   171   169   ar
   167   172   170   ar
   168   169   170   ar
   169   169   168    1
   170   165   168    1
   171   165   166    1
   172   165   164    1
   173   166   167    2
