@<TRIPOS>MOLECULE
tmp/1bnvA00.pdb
 185 180 0 0 0
SMALL
GASTEIGER

@<TRIPOS>ATOM
      1  N          8.0760   -0.3480   10.6730 N.3     2  TRP2       -0.1241
      2  CA         7.4290   -1.3530   11.5030 C.3     2  TRP2        0.1605
      3  C          6.4660   -2.1750   10.6600 C.2     2  TRP2        0.2264
      4  O          6.0410   -1.7500    9.5860 O.2     2  TRP2       -0.2867
      5  CB         6.6920   -0.6970   12.6760 C.3     2  TRP2        0.0550
      6  CG         5.4500    0.0520   12.2900 C.ar    2  TRP2        0.0003
      7  CD1        5.3600    1.3730   11.9520 C.ar    2  TRP2        0.0946
      8  CD2        4.1130   -0.4740   12.2160 C.ar    2  TRP2        0.0152
      9  NE1        4.0510    1.7030   11.6730 N.ar    2  TRP2       -0.2442
     10  CE2        3.2660    0.5900   11.8230 C.ar    2  TRP2        0.0810
     11  CE3        3.5500   -1.7400   12.4470 C.ar    2  TRP2        0.0012
     12  CZ2        1.8870    0.4310   11.6540 C.ar    2  TRP2        0.0191
     13  CZ3        2.1740   -1.8990   12.2800 C.ar    2  TRP2        0.0001
     14  CH2        1.3590   -0.8180   11.8870 C.ar    2  TRP2        0.0015
     15  N         -3.4760    0.4100    3.6590 N.3    59  ASN59      -0.1240
     16  CA        -2.3940    1.2850    4.1210 C.3    59  ASN59       0.1653
     17  C         -1.1190    0.5120    4.4560 C.2    59  ASN59       0.2266
     18  O         -0.1980    1.0470    5.0820 O.2    59  ASN59      -0.2867
     19  CB        -2.8410    2.1320    5.3180 C.3    59  ASN59       0.1155
     20  CG        -3.0940    1.3110    6.5680 C.2    59  ASN59       0.2627
     21  OD1       -3.1360    0.0840    6.5330 O.2    59  ASN59      -0.2716
     22  ND2       -3.2760    1.9950    7.6830 N.am   59  ASN59      -0.0877
     23  N         -0.8590   -1.9120    6.4750 N.3    61  HIS61      -0.1241
     24  CA        -1.0320   -2.5840    7.7660 C.3    61  HIS61       0.1621
     25  C         -2.4060   -3.2430    7.8190 C.2    61  HIS61       0.2264
     26  O         -2.6200   -4.2190    8.5530 O.2    61  HIS61      -0.2867
     27  CB        -0.9110   -1.5830    8.9210 C.3    61  HIS61       0.0745
     28  CG         0.1500   -0.5430    8.6800 C.ar   61  HIS61       0.0817
     29  ND1        1.3920   -0.9430    8.3970 N.ar   61  HIS61      -0.2268
     30  CD2        0.1310    0.8610    8.4810 C.ar   61  HIS61       0.1154
     31  CE1        2.1710    0.1170    8.0180 C.ar   61  HIS61       0.1986
     32  NE2        1.3920    1.2320    8.0690 N.ar   61  HIS61      -0.2212
     33  N         -8.6550    0.2130    5.6170 N.3    64  ASN64      -0.1240
     34  CA        -9.4130    1.1370    6.4400 C.3    64  ASN64       0.1653
     35  C        -10.5660    1.7360    5.6610 C.2    64  ASN64       0.2266
     36  O        -10.4360    2.0130    4.4690 O.2    64  ASN64      -0.2867
     37  CB        -8.5230    2.2940    6.8860 C.3    64  ASN64       0.1155
     38  CG        -7.3870    1.8600    7.7710 C.2    64  ASN64       0.2627
     39  OD1       -7.1310    2.4770    8.7980 O.2    64  ASN64      -0.2716
     40  ND2       -6.6450    0.8530    7.3450 N.am   64  ASN64      -0.0877
     41  N        -14.1880    8.3080   12.7930 N.3    88  ILE88      -0.1231
     42  CA       -13.3000    8.7280   11.7250 C.3    88  ILE88       0.1692
     43  C        -12.9570    7.5600   10.8060 C.2    88  ILE88       0.2591
     44  O        -12.9190    7.7270    9.5960 O.2    88  ILE88      -0.2718
     45  CB       -12.0140    9.3760   12.2760 C.3    88  ILE88       0.0266
     46  CG1      -11.0430    9.6620   11.1320 C.3    88  ILE88       0.0019
     47  CG2      -11.3750    8.5080   13.3480 C.3    88  ILE88       0.0020
     48  CD1       -9.7670   10.3560   11.5850 C.3    88  ILE88       0.0001
     49  N        -12.7440    6.3700   11.3640 N.am   89  GLN89      -0.1979
     50  CA       -12.4220    5.2170   10.5280 C.3    89  GLN89       0.1601
     51  C        -12.6270    3.9160   11.2620 C.2    89  GLN89       0.2287
     52  O        -12.8290    3.9200   12.4660 O.2    89  GLN89      -0.2864
     53  CB       -10.9560    5.2890   10.0470 C.3    89  GLN89       0.0394
     54  CG        -9.8730    5.1130   11.1470 C.3    89  GLN89       0.0908
     55  CD        -9.1700    3.7590   11.0880 C.2    89  GLN89       0.2608
     56  OE1       -9.7830    2.7500   10.7900 O.2    89  GLN89      -0.2717
     57  NE2       -7.8820    3.7430   11.3770 N.am   89  GLN89      -0.0878
     58  N        -11.2060   -0.3940   11.1450 N.3    91  HIS91      -0.1241
     59  CA       -10.3210   -1.3790   10.5290 C.3    91  HIS91       0.1621
     60  C        -10.4290   -2.7080   11.2430 C.2    91  HIS91       0.2264
     61  O        -11.1250   -2.8310   12.2470 O.2    91  HIS91      -0.2867
     62  CB        -8.8550   -0.8990   10.5270 C.3    91  HIS91       0.0745
     63  CG        -8.3240   -0.5940   11.9250 C.ar   91  HIS91       0.0817
     64  ND1       -8.4940    0.6370   12.4160 N.ar   91  HIS91      -0.2268
     65  CD2       -7.7820   -1.3620   12.9810 C.ar   91  HIS91       0.1154
     66  CE1       -8.1070    0.7000   13.7180 C.ar   91  HIS91       0.1986
     67  NE2       -7.6660   -0.5340   14.0720 N.ar   91  HIS91      -0.2212
     68  N         -8.2490   -6.5460   12.4010 N.3    93  HIS93      -0.1241
     69  CA        -6.9990   -7.2040   12.7210 C.3    93  HIS93       0.1621
     70  C         -7.4110   -8.6570   12.6120 C.2    93  HIS93       0.2264
     71  O         -8.3710   -9.0710   13.2710 O.2    93  HIS93      -0.2867
     72  CB        -6.5820   -6.8790   14.1510 C.3    93  HIS93       0.0745
     73  CG        -6.2010   -5.4350   14.3220 C.ar   93  HIS93       0.0817
     74  ND1       -4.9240   -5.0930   14.1380 N.ar   93  HIS93      -0.2268
     75  CD2       -6.8750   -4.2540   14.7090 C.ar   93  HIS93       0.1154
     76  CE1       -4.7400   -3.7640   14.3900 C.ar   93  HIS93       0.1986
     77  NE2       -5.9460   -3.2450   14.7440 N.ar   93  HIS93      -0.2212
     78  N        -12.2310   -2.5500   14.8870 N.3   116  HIS116     -0.1241
     79  CA       -12.0260   -1.3630   15.6970 C.3   116  HIS116      0.1621
     80  C        -12.6460   -0.1590   15.0240 C.2   116  HIS116      0.2264
     81  O        -12.3130    0.1680   13.8830 O.2   116  HIS116     -0.2867
     82  CB       -10.5480   -1.0780   15.9200 C.3   116  HIS116      0.0745
     83  CG        -9.8770   -2.1270   16.7390 C.ar  116  HIS116      0.0817
     84  ND1       -8.5510   -2.0910   16.8210 N.ar  116  HIS116     -0.2268
     85  CD2      -10.2840   -3.2560   17.4720 C.ar  116  HIS116      0.1154
     86  CE1       -8.0850   -3.1340   17.5640 C.ar  116  HIS116      0.1986
     87  NE2       -9.1520   -3.8540   17.9630 N.ar  116  HIS116     -0.2212
     88  N        -12.8120    3.5790   15.3860 N.3   118  VAL118     -0.1245
     89  CA       -12.0260    4.6160   16.0320 C.3   118  VAL118      0.1561
     90  C        -12.7290    5.9550   16.0670 C.2   118  VAL118      0.2260
     91  O        -13.2420    6.4110   15.0400 O.2   118  VAL118     -0.2867
     92  CB       -10.6390    4.7390   15.3290 C.3   118  VAL118      0.0252
     93  CG1       -9.7290    5.7370   16.0550 C.3   118  VAL118      0.0019
     94  CG2       -9.9670    3.3630   15.2570 C.3   118  VAL118      0.0019
     95  N         -8.5310   15.4260   15.0010 N.3   127  PHE127     -0.1241
     96  CA        -7.8670   14.1710   15.3590 C.3   127  PHE127      0.1605
     97  C         -6.4370   14.4130   15.8270 C.2   127  PHE127      0.2264
     98  O         -5.9840   13.8530   16.8280 O.2   127  PHE127     -0.2867
     99  CB        -7.8710   13.2240   14.1510 C.3   127  PHE127      0.0534
    100  CG        -7.3230   11.8570   14.4410 C.ar  127  PHE127     -0.0203
    101  CD1       -8.1420   10.8650   14.9520 C.ar  127  PHE127     -0.0042
    102  CD2       -5.9790   11.5640   14.2050 C.ar  127  PHE127     -0.0042
    103  CE1       -7.6370    9.5980   15.2260 C.ar  127  PHE127     -0.0003
    104  CE2       -5.4620   10.2980   14.4750 C.ar  127  PHE127     -0.0003
    105  CZ        -6.2940    9.3150   14.9880 C.ar  127  PHE127     -0.0000
    106  N         -4.9810   13.1840   19.6880 N.3   131  VAL131     -0.1245
    107  CA        -3.8940   12.2420   19.9590 C.3   131  VAL131      0.1561
    108  C         -2.8190   12.7760   20.8930 C.2   131  VAL131      0.2260
    109  O         -1.8340   12.0960   21.1530 O.2   131  VAL131     -0.2867
    110  CB        -3.2400   11.6770   18.6650 C.3   131  VAL131      0.0252
    111  CG1       -4.2330   10.8190   17.9070 C.3   131  VAL131      0.0019
    112  CG2       -2.7160   12.7950   17.7870 C.3   131  VAL131      0.0019
    113  N         -9.0650    9.6420   22.4410 N.3   137  LEU137     -0.1245
    114  CA        -9.7420    8.6810   21.5720 C.3   137  LEU137      0.1561
    115  C        -10.5330    7.6430   22.3400 C.2   137  LEU137      0.2260
    116  O        -10.2380    7.3470   23.4930 O.2   137  LEU137     -0.2867
    117  CB        -8.7370    7.9160   20.7030 C.3   137  LEU137      0.0270
    118  CG        -7.6010    8.5920   19.9290 C.3   137  LEU137      0.0019
    119  CD1       -6.8520    7.5170   19.1430 C.3   137  LEU137      0.0001
    120  CD2       -8.1250    9.6800   18.9970 C.3   137  LEU137      0.0001
    121  N        -12.0790    3.7160   21.3590 N.3   139  VAL139     -0.1245
    122  CA       -12.1570    2.7160   20.3160 C.3   139  VAL139      0.1561
    123  C        -13.1150    1.6180   20.7480 C.2   139  VAL139      0.2260
    124  O        -13.0270    1.0960   21.8720 O.2   139  VAL139     -0.2867
    125  CB       -10.7650    2.1170   19.9540 C.3   139  VAL139      0.0252
    126  CG1      -10.8920    1.1970   18.7460 C.3   139  VAL139      0.0019
    127  CG2       -9.7590    3.2320   19.6630 C.3   139  VAL139      0.0019
    128  N         -2.9950    2.8620   21.3800 N.3   194  LEU194     -0.1231
    129  CA        -3.2150    2.3500   20.0310 C.3   194  LEU194      0.1693
    130  C         -2.4150    1.0630   20.0600 C.2   194  LEU194      0.2593
    131  O         -1.4280    0.9610   20.7990 O.2   194  LEU194     -0.2718
    132  CB        -2.6060    3.2750   18.9910 C.3   194  LEU194      0.0284
    133  CG        -3.1150    4.7130   18.9890 C.3   194  LEU194      0.0019
    134  CD1       -2.2180    5.5630   18.1160 C.3   194  LEU194      0.0001
    135  CD2       -4.5520    4.7460   18.5050 C.3   194  LEU194      0.0001
    136  N         -2.8290    0.0740   19.2870 N.am  195  THR195     -0.1939
    137  CA        -2.1150   -1.1840   19.2730 C.3   195  THR195      0.2028
    138  C         -1.0330   -1.2030   18.1900 C.2   195  THR195      0.2643
    139  O         -0.3020   -2.1910   18.0380 O.2   195  THR195     -0.2714
    140  CB        -3.0850   -2.3280   19.0650 C.3   195  THR195      0.1808
    141  OG1       -3.7880   -2.1260   17.8380 O.3   195  THR195     -0.2208
    142  CG2       -4.0930   -2.3710   20.1990 C.3   195  THR195      0.0379
    143  N         -0.9390   -0.1100   17.4320 N.am  196  THR196     -0.1937
    144  CA         0.0560    0.0150   16.3720 C.3   196  THR196      0.2013
    145  C          0.8840    1.2660   16.6270 C.2   196  THR196      0.2484
    146  O          0.4530    2.1630   17.3580 O.2   196  THR196     -0.2729
    147  CB        -0.6130    0.1930   14.9850 C.3   196  THR196      0.1807
    148  OG1       -1.4520    1.3570   15.0100 O.3   196  THR196     -0.2208
    149  CG2       -1.4490   -1.0270   14.6050 C.3   196  THR196      0.0379
    150  N          2.1140    1.3200   16.0820 N.am  197  PRO197     -0.2715
    151  CA         2.9270    2.5160   16.2930 C.3   197  PRO197      0.1521
    152  C          2.0860    3.6520   15.7500 C.2   197  PRO197      0.2440
    153  O          1.3410    3.4530   14.7830 O.2   197  PRO197     -0.2731
    154  CB         4.1430    2.2370   15.4250 C.3   197  PRO197      0.0310
    155  CG         4.3340    0.7820   15.6330 C.3   197  PRO197      0.0237
    156  CD         2.9180    0.2600   15.4510 C.3   197  PRO197      0.0939
    157  N          2.2250    4.8710   16.3030 N.am  198  PRO198     -0.2727
    158  CA         3.0980    5.3230   17.3900 C.3   198  PRO198      0.1402
    159  C          2.7840    4.8660   18.8220 C.2   198  PRO198      0.2269
    160  O          3.3940    5.3580   19.7630 O.2   198  PRO198     -0.2865
    161  CB         3.0350    6.8360   17.2460 C.3   198  PRO198      0.0296
    162  CG         1.5920    7.0630   16.8220 C.3   198  PRO198      0.0237
    163  CD         1.3590    5.9690   15.8200 C.3   198  PRO198      0.0939
    164  N          0.4670    5.5360   21.0290 N.3   200  LEU200     -0.1245
    165  CA         0.0600    6.5790   21.9690 C.3   200  LEU200      0.1561
    166  C         -0.9820    6.1350   23.0180 C.2   200  LEU200      0.2260
    167  O         -1.9580    5.4470   22.6990 O.2   200  LEU200     -0.2867
    168  CB        -0.4630    7.7810   21.1780 C.3   200  LEU200      0.0270
    169  CG         0.5150    8.3470   20.1410 C.3   200  LEU200      0.0019
    170  CD1       -0.0950    9.5850   19.4840 C.3   200  LEU200      0.0001
    171  CD2        1.8490    8.6910   20.8010 C.3   200  LEU200      0.0001
    172  N        -10.6180    2.2160   25.8860 N.3   205  TRP205     -0.1241
    173  CA       -11.0650    1.0220   25.2090 C.3   205  TRP205      0.1605
    174  C        -12.4020    0.5280   25.6880 C.2   205  TRP205      0.2264
    175  O        -12.5960    0.3010   26.8810 O.2   205  TRP205     -0.2867
    176  CB       -10.0240   -0.0790   25.3350 C.3   205  TRP205      0.0550
    177  CG        -8.9710    0.0710   24.3160 C.ar  205  TRP205      0.0003
    178  CD1       -7.7630    0.6920   24.4600 C.ar  205  TRP205      0.0946
    179  CD2       -9.0340   -0.3850   22.9620 C.ar  205  TRP205      0.0152
    180  NE1       -7.0720    0.6520   23.2750 N.ar  205  TRP205     -0.2442
    181  CE2       -7.8230   -0.0090   22.3390 C.ar  205  TRP205      0.0810
    182  CE3       -9.9980   -1.0810   22.2110 C.ar  205  TRP205      0.0012
    183  CZ2       -7.5450   -0.3100   21.0060 C.ar  205  TRP205      0.0191
    184  CZ3       -9.7220   -1.3790   20.8860 C.ar  205  TRP205      0.0001
    185  CH2       -8.5020   -0.9940   20.2980 C.ar  205  TRP205      0.0015
@<TRIPOS>BOND
     1    15    16    1
     2    16    17    1
     3    16    19    1
     4    17    18    2
     5    36    35    2
     6    19    20    1
     7    33    34    1
     8    35    34    1
     9    34    37    1
    10    23    24    1
    11    21    20    2
    12    20    22   am
    13    37    38    1
    14    40    38   am
    15    24    25    1
    16    24    27    1
    17    38    39    2
    18    25    26    2
    19    31    32   ar
    20    31    29   ar
    21    32    30   ar
    22    29    28   ar
    23    30    28   ar
    24    28    27    1
    25     4     3    2
    26    44    43    2
    27    53    50    1
    28    53    54    1
    29    62    59    1
    30    62    63    1
    31    50    51    1
    32    50    49    1
    33    59    58    1
    34    59    60    1
    35     3     2    1
    36     1     2    1
    37    56    55    2
    38    43    49   am
    39    43    42    1
    40    55    54    1
    41    55    57   am
    42    46    48    1
    43    46    45    1
    44    60    61    2
    45    51    52    2
    46     2     5    1
    47    12    10   ar
    48    12    14   ar
    49     9    10   ar
    50     9     7   ar
    51    42    45    1
    52    42    41    1
    53    10     8   ar
    54    14    13   ar
    55    63    64   ar
    56    63    65   ar
    57     7     6   ar
    58     8     6   ar
    59     8    11   ar
    60    45    47    1
    61    13    11   ar
    62     6     5    1
    63    68    69    1
    64    64    66   ar
    65    70    69    1
    66    70    71    2
    67    69    72    1
    68    65    67   ar
    69    66    67   ar
    70    81    80    2
    71    74    73   ar
    72    74    76   ar
    73    72    73    1
    74    99   100    1
    75    99    96    1
    76   102   100   ar
    77   102   104   ar
    78    73    75   ar
    79    76    77   ar
    80   100   101   ar
    81   104   105   ar
    82   149   147    1
    83    75    77   ar
    84   153   152    2
    85    78    79    1
    86   101   103   ar
    87   147   148    1
    88   147   144    1
    89   105   103   ar
    90    95    96    1
    91    80    79    1
    92    91    90    2
    93    94    92    1
    94    92    89    1
    95    92    93    1
    96    96    97    1
    97    88    89    1
    98   154   155    1
    99   154   151    1
   100   156   155    1
   101   156   150    1
   102    79    82    1
   103   152   151    1
   104   152   157   am
   105   163   157    1
   106   163   162    1
   107    97    98    2
   108    82    83    1
   109    89    90    1
   110   150   151    1
   111   150   145   am
   112   157   158    1
   113   144   145    1
   114   144   143    1
   115   145   146    2
   116    83    84   ar
   117    83    85   ar
   118    84    86   ar
   119   162   161    1
   120   161   158    1
   121   158   159    1
   122   143   138   am
   123    85    87   ar
   124    86    87   ar
   125   112   110    1
   126   141   140    1
   127   111   110    1
   128   139   138    2
   129   134   133    1
   130   138   137    1
   131   135   133    1
   132   110   107    1
   133   126   125    1
   134   159   160    2
   135   133   132    1
   136   132   129    1
   137   120   118    1
   138   140   137    1
   139   140   142    1
   140   119   118    1
   141   137   136    1
   142   136   130   am
   143   170   169    1
   144   127   125    1
   145   106   107    1
   146   118   117    1
   147   125   122    1
   148   107   108    1
   149   129   130    1
   150   129   128    1
   151   130   131    2
   152   169   171    1
   153   169   168    1
   154   185   184   ar
   155   185   183   ar
   156   122   123    1
   157   122   121    1
   158   117   114    1
   159   123   124    2
   160   184   182   ar
   161   108   109    2
   162   183   181   ar
   163   164   165    1
   164   168   165    1
   165   114   115    1
   166   114   113    1
   167   165   166    1
   168   182   179   ar
   169   181   179   ar
   170   181   180   ar
   171   115   116    2
   172   167   166    2
   173   179   177   ar
   174   180   178   ar
   175   177   178   ar
   176   177   176    1
   177   173   176    1
   178   173   174    1
   179   173   172    1
   180   174   175    2
