@<TRIPOS>MOLECULE
tmp/1bnwA00.pdb
 137 133 0 0 0
SMALL
GASTEIGER

@<TRIPOS>ATOM
      1  N         -8.6120    0.3900    5.8340 N.3    64  ASN64      -0.1240
      2  CA        -9.4070    1.2500    6.6690 C.3    64  ASN64       0.1653
      3  C        -10.5390    1.7910    5.8360 C.2    64  ASN64       0.2266
      4  O        -10.3080    2.0980    4.6590 O.2    64  ASN64      -0.2867
      5  CB        -8.6100    2.4370    7.1630 C.3    64  ASN64       0.1155
      6  CG        -7.3700    2.1770    7.9980 C.2    64  ASN64       0.2627
      7  OD1       -6.5880    3.1010    8.1990 O.2    64  ASN64      -0.2716
      8  ND2       -7.0770    1.0170    8.5460 N.am   64  ASN64      -0.0877
      9  N        -12.8110    6.3270   11.3560 N.3    89  GLN89      -0.1245
     10  CA       -12.4830    5.2000   10.4930 C.3    89  GLN89       0.1566
     11  C        -12.6500    3.8760   11.1990 C.2    89  GLN89       0.2260
     12  O        -12.7500    3.9000   12.4300 O.2    89  GLN89      -0.2867
     13  CB       -11.0270    5.3190    9.9800 C.3    89  GLN89       0.0367
     14  CG        -9.8570    5.3380   10.9520 C.3    89  GLN89       0.0905
     15  CD        -9.1480    4.0030   11.0360 C.2    89  GLN89       0.2608
     16  OE1       -9.7320    2.9670   10.7930 O.2    89  GLN89      -0.2717
     17  NE2       -7.8810    3.8860   11.3640 N.am   89  GLN89      -0.0878
     18  N        -11.1210   -0.3460   11.0440 N.3    91  HIS91      -0.1241
     19  CA       -10.2040   -1.3060   10.4340 C.3    91  HIS91       0.1621
     20  C        -10.3160   -2.6240   11.1590 C.2    91  HIS91       0.2264
     21  O        -11.0120   -2.7280   12.1650 O.2    91  HIS91      -0.2867
     22  CB        -8.7480   -0.8630   10.5290 C.3    91  HIS91       0.0745
     23  CG        -8.3400   -0.3830   11.9020 C.ar   91  HIS91       0.0817
     24  ND1       -8.4690    0.8500   12.3720 N.ar   91  HIS91      -0.2268
     25  CD2       -7.8080   -1.1590   12.8800 C.ar   91  HIS91       0.1154
     26  CE1       -8.0410    0.8610   13.5990 C.ar   91  HIS91       0.1986
     27  NE2       -7.6470   -0.3540   13.8940 N.ar   91  HIS91      -0.2212
     28  N         -8.1500   -6.3940   12.3870 N.3    93  HIS93      -0.1241
     29  CA        -6.9170   -7.1260   12.6430 C.3    93  HIS93       0.1621
     30  C         -7.3840   -8.5730   12.4920 C.2    93  HIS93       0.2264
     31  O         -8.4770   -8.9090   12.9830 O.2    93  HIS93      -0.2867
     32  CB        -6.4370   -6.8240   14.0740 C.3    93  HIS93       0.0745
     33  CG        -6.0030   -5.3720   14.2790 C.ar   93  HIS93       0.0817
     34  ND1       -4.7760   -4.8770   14.1690 N.ar   93  HIS93      -0.2268
     35  CD2       -6.8240   -4.3280   14.6410 C.ar   93  HIS93       0.1154
     36  CE1       -4.8220   -3.5930   14.4590 C.ar   93  HIS93       0.1986
     37  NE2       -6.0540   -3.2690   14.7440 N.ar   93  HIS93      -0.2212
     38  N        -12.0180   -2.5210   14.8970 N.3   116  HIS116     -0.1241
     39  CA       -11.8980   -1.3370   15.7050 C.3   116  HIS116      0.1621
     40  C        -12.6010   -0.1450   15.0630 C.2   116  HIS116      0.2264
     41  O        -12.2770    0.2330   13.9360 O.2   116  HIS116     -0.2867
     42  CB       -10.4290   -1.0070   15.9160 C.3   116  HIS116      0.0745
     43  CG        -9.5890   -1.9950   16.7270 C.ar  116  HIS116      0.0817
     44  ND1       -8.2870   -2.2290   16.5900 N.ar  116  HIS116     -0.2268
     45  CD2      -10.0220   -2.7400   17.7870 C.ar  116  HIS116      0.1154
     46  CE1       -7.9100   -3.0700   17.5340 C.ar  116  HIS116      0.1986
     47  NE2       -8.9650   -3.3620   18.2410 N.ar  116  HIS116     -0.2212
     48  N        -12.8210    3.6810   15.2880 N.3   118  VAL118     -0.1245
     49  CA       -12.0020    4.6780   15.9460 C.3   118  VAL118      0.1561
     50  C        -12.6870    6.0290   16.0050 C.2   118  VAL118      0.2260
     51  O        -13.2570    6.4860   14.9970 O.2   118  VAL118     -0.2867
     52  CB       -10.6540    4.7340   15.1960 C.3   118  VAL118      0.0252
     53  CG1       -9.6990    5.7690   15.8110 C.3   118  VAL118      0.0019
     54  CG2      -10.0410    3.3360   15.2420 C.3   118  VAL118      0.0019
     55  N         -8.6090   15.3230   14.9750 N.3   127  PHE127     -0.1241
     56  CA        -7.9840   14.0850   15.3850 C.3   127  PHE127      0.1605
     57  C         -6.5590   14.3000   15.8600 C.2   127  PHE127      0.2264
     58  O         -6.1160   13.7230   16.8510 O.2   127  PHE127     -0.2867
     59  CB        -8.0020   13.1270   14.2230 C.3   127  PHE127      0.0534
     60  CG        -7.5020   11.7290   14.5480 C.ar  127  PHE127     -0.0203
     61  CD1       -8.3940   10.7800   15.0320 C.ar  127  PHE127     -0.0042
     62  CD2       -6.1520   11.3960   14.3610 C.ar  127  PHE127     -0.0042
     63  CE1       -7.9300    9.4970   15.3270 C.ar  127  PHE127     -0.0003
     64  CE2       -5.6940   10.1150   14.6590 C.ar  127  PHE127     -0.0003
     65  CZ        -6.5870    9.1630   15.1440 C.ar  127  PHE127     -0.0000
     66  N         -5.0600   13.1740   19.6030 N.3   131  VAL131     -0.1245
     67  CA        -4.0120   12.2180   19.9420 C.3   131  VAL131      0.1561
     68  C         -2.9180   12.8790   20.7670 C.2   131  VAL131      0.2260
     69  O         -1.8220   12.3440   20.8900 O.2   131  VAL131     -0.2867
     70  CB        -3.3590   11.5430   18.6670 C.3   131  VAL131      0.0252
     71  CG1       -4.4840   10.8160   17.9680 C.3   131  VAL131      0.0019
     72  CG2       -2.6650   12.5050   17.7150 C.3   131  VAL131      0.0019
     73  N        -11.9440    3.8180   21.2140 N.3   139  VAL139     -0.1245
     74  CA       -12.0080    2.8160   20.1790 C.3   139  VAL139      0.1561
     75  C        -13.0160    1.7970   20.6920 C.2   139  VAL139      0.2260
     76  O        -12.9550    1.3860   21.8590 O.2   139  VAL139     -0.2867
     77  CB       -10.6300    2.1580   19.9520 C.3   139  VAL139      0.0252
     78  CG1      -10.7640    1.2070   18.7440 C.3   139  VAL139      0.0019
     79  CG2       -9.5350    3.1980   19.6610 C.3   139  VAL139      0.0019
     80  N         -3.0280    3.0250   21.3160 N.3   194  LEU194     -0.1231
     81  CA        -3.2150    2.5260   19.9670 C.3   194  LEU194      0.1693
     82  C         -2.4100    1.2330   19.9370 C.2   194  LEU194      0.2593
     83  O         -1.3970    1.1110   20.6350 O.2   194  LEU194     -0.2718
     84  CB        -2.6200    3.4320   18.9330 C.3   194  LEU194      0.0284
     85  CG        -3.1210    4.8530   18.8710 C.3   194  LEU194      0.0019
     86  CD1       -2.2400    5.6260   17.9040 C.3   194  LEU194      0.0001
     87  CD2       -4.5960    4.8470   18.5250 C.3   194  LEU194      0.0001
     88  N         -2.7950    0.2620   19.1310 N.am  195  THR195     -0.1939
     89  CA        -2.0610   -0.9720   19.1550 C.3   195  THR195      0.2028
     90  C         -1.0300   -1.0700   18.0530 C.2   195  THR195      0.2643
     91  O         -0.4150   -2.1300   17.8860 O.2   195  THR195     -0.2714
     92  CB        -3.0690   -2.0970   19.0800 C.3   195  THR195      0.1808
     93  OG1       -3.6840   -1.9850   17.8150 O.3   195  THR195     -0.2208
     94  CG2       -4.1260   -2.0360   20.2010 C.3   195  THR195      0.0379
     95  N         -0.8720   -0.0020   17.2420 N.am  196  THR196     -0.1937
     96  CA         0.1610    0.0360   16.2200 C.3   196  THR196      0.2013
     97  C          0.9820    1.3000   16.5190 C.2   196  THR196      0.2484
     98  O          0.4620    2.2090   17.2120 O.2   196  THR196     -0.2729
     99  CB        -0.4630    0.1000   14.7910 C.3   196  THR196      0.1807
    100  OG1       -1.0430    1.3830   14.6380 O.3   196  THR196     -0.2208
    101  CG2       -1.5470   -0.9510   14.5560 C.3   196  THR196      0.0379
    102  N          2.2580    1.4540   16.1110 N.am  197  PRO197     -0.2715
    103  CA         2.9830    2.6970   16.2200 C.3   197  PRO197      0.1521
    104  C          2.1030    3.8320   15.7320 C.2   197  PRO197      0.2440
    105  O          1.3190    3.5980   14.8090 O.2   197  PRO197     -0.2731
    106  CB         4.2000    2.4460   15.4000 C.3   197  PRO197      0.0310
    107  CG         4.4980    1.0130   15.7410 C.3   197  PRO197      0.0237
    108  CD         3.1200    0.4220   15.5700 C.3   197  PRO197      0.0939
    109  N          2.1000    5.0450   16.2790 N.am  198  PRO198     -0.2727
    110  CA         3.0030    5.4730   17.3400 C.3   198  PRO198      0.1402
    111  C          2.7240    5.0010   18.7850 C.2   198  PRO198      0.2269
    112  O          3.4490    5.3870   19.6990 O.2   198  PRO198     -0.2865
    113  CB         2.9980    6.9890   17.1190 C.3   198  PRO198      0.0296
    114  CG         1.5940    7.3190   16.6400 C.3   198  PRO198      0.0237
    115  CD         1.2000    6.1060   15.8000 C.3   198  PRO198      0.0939
    116  N          0.4870    5.6600   21.0620 N.3   200  LEU200     -0.1245
    117  CA         0.1270    6.7380   21.9720 C.3   200  LEU200      0.1561
    118  C         -0.9270    6.3360   22.9880 C.2   200  LEU200      0.2260
    119  O         -1.8930    5.6300   22.6640 O.2   200  LEU200     -0.2867
    120  CB        -0.3610    7.9120   21.1510 C.3   200  LEU200      0.0270
    121  CG         0.6980    8.4350   20.1930 C.3   200  LEU200      0.0019
    122  CD1        0.0750    9.4620   19.2760 C.3   200  LEU200      0.0001
    123  CD2        1.8370    9.0530   20.9730 C.3   200  LEU200      0.0001
    124  N        -10.5750    2.3180   25.8180 N.3   205  TRP205     -0.1241
    125  CA       -11.0420    1.1680   25.0780 C.3   205  TRP205      0.1605
    126  C        -12.4020    0.7180   25.5580 C.2   205  TRP205      0.2264
    127  O        -12.6430    0.6440   26.7800 O.2   205  TRP205     -0.2867
    128  CB       -10.0860    0.0400   25.2550 C.3   205  TRP205      0.0550
    129  CG        -8.9790    0.1390   24.2550 C.ar  205  TRP205      0.0003
    130  CD1       -7.7500    0.6670   24.5500 C.ar  205  TRP205      0.0946
    131  CD2       -9.0900   -0.3110   22.9680 C.ar  205  TRP205      0.0152
    132  NE1       -7.0670    0.5470   23.4260 N.ar  205  TRP205     -0.2442
    133  CE2       -7.8100   -0.0320   22.4700 C.ar  205  TRP205      0.0810
    134  CE3      -10.0800   -0.9090   22.1800 C.ar  205  TRP205      0.0012
    135  CZ2       -7.4870   -0.3570   21.1540 C.ar  205  TRP205      0.0191
    136  CZ3       -9.7570   -1.2310   20.8740 C.ar  205  TRP205      0.0001
    137  CH2       -8.4700   -0.9580   20.3670 C.ar  205  TRP205      0.0015
@<TRIPOS>BOND
     1     4     3    2
     2     1     2    1
     3     3     2    1
     4     2     5    1
     5     5     6    1
     6     6     7    2
     7     6     8   am
     8    13    10    1
     9    13    14    1
    10    19    22    1
    11    19    18    1
    12    19    20    1
    13    10    11    1
    14    10     9    1
    15    22    23    1
    16    16    15    2
    17    14    15    1
    18    15    17   am
    19    20    21    2
    20    11    12    2
    21    23    24   ar
    22    23    25   ar
    23    24    26   ar
    24    28    29    1
    25    30    29    1
    26    30    31    2
    27    29    32    1
    28    25    27   ar
    29    26    27   ar
    30    41    40    2
    31    32    33    1
    32    34    33   ar
    33    34    36   ar
    34    59    60    1
    35    59    56    1
    36    33    35   ar
    37    62    60   ar
    38    62    64   ar
    39    36    37   ar
    40    60    61   ar
    41   101    99    1
    42   100    99    1
    43    35    37   ar
    44    64    65   ar
    45    99    96    1
    46   105   104    2
    47    38    39    1
    48    55    56    1
    49    51    50    2
    50    61    63   ar
    51    40    39    1
    52    65    63   ar
    53    52    54    1
    54    52    53    1
    55    52    49    1
    56    48    49    1
    57    56    57    1
    58   106   107    1
    59   106   103    1
    60   108   107    1
    61   108   102    1
    62    39    42    1
    63   104   103    1
    64   104   109   am
    65   115   109    1
    66   115   114    1
    67    57    58    2
    68    42    43    1
    69    49    50    1
    70   102   103    1
    71   102    97   am
    72    96    97    1
    73    96    95    1
    74   109   110    1
    75    97    98    2
    76    44    43   ar
    77    44    46   ar
    78   114   113    1
    79    43    45   ar
    80   113   110    1
    81    95    90   am
    82   110   111    1
    83    46    47   ar
    84    72    70    1
    85    45    47   ar
    86    93    92    1
    87    91    90    2
    88    86    85    1
    89    71    70    1
    90    90    89    1
    91    87    85    1
    92    70    67    1
    93    78    77    1
    94   111   112    2
    95    85    84    1
    96    84    81    1
    97    92    89    1
    98    92    94    1
    99    88    89    1
   100    88    82   am
   101   122   121    1
   102    66    67    1
   103    79    77    1
   104    82    81    1
   105    82    83    2
   106    67    68    1
   107    77    74    1
   108    81    80    1
   109    74    75    1
   110    74    73    1
   111   121   123    1
   112   121   120    1
   113   137   136   ar
   114   137   135   ar
   115    75    76    2
   116    68    69    2
   117   136   134   ar
   118   116   117    1
   119   120   117    1
   120   135   133   ar
   121   117   118    1
   122   134   131   ar
   123   133   131   ar
   124   133   132   ar
   125   119   118    2
   126   131   129   ar
   127   132   130   ar
   128   129   130   ar
   129   129   128    1
   130   125   128    1
   131   125   126    1
   132   125   124    1
   133   126   127    2
