@<TRIPOS>MOLECULE
tmp/1bo4A00.pdb
 89 86 0 0 0
SMALL
GASTEIGER

@<TRIPOS>ATOM
      1  N          2.4970   76.8190   31.6380 N.3    27  PHE27      -0.1241
      2  CA         2.5330   75.5000   31.0130 C.3    27  PHE27       0.1605
      3  C          1.1730   75.1110   30.4170 C.2    27  PHE27       0.2264
      4  O          1.0350   74.0440   29.8190 O.2    27  PHE27      -0.2867
      5  CB         2.9540   74.4480   32.0490 C.3    27  PHE27       0.0534
      6  CG         4.3480   74.6360   32.5790 C.ar   27  PHE27      -0.0203
      7  CD1        5.3390   75.2140   31.7950 C.ar   27  PHE27      -0.0042
      8  CD2        4.6710   74.2290   33.8720 C.ar   27  PHE27      -0.0042
      9  CE1        6.6260   75.3870   32.2930 C.ar   27  PHE27      -0.0003
     10  CE2        5.9560   74.3990   34.3760 C.ar   27  PHE27      -0.0003
     11  CZ         6.9320   74.9800   33.5830 C.ar   27  PHE27      -0.0000
     12  N         -1.0120   72.1180   38.4050 N.3    33  TYR33      -0.1241
     13  CA        -0.1760   72.8680   39.3410 C.3    33  TYR33       0.1605
     14  C         -0.8890   73.6840   40.3930 C.2    33  TYR33       0.2264
     15  O         -0.2620   74.1830   41.3210 O.2    33  TYR33      -0.2867
     16  CB         0.7490   73.8240   38.5910 C.3    33  TYR33       0.0534
     17  CG         1.8220   73.1530   37.7880 C.ar   33  TYR33      -0.0201
     18  CD1        1.5570   72.6170   36.5240 C.ar   33  TYR33      -0.0009
     19  CD2        3.1050   73.0150   38.3120 C.ar   33  TYR33      -0.0009
     20  CE1        2.5530   71.9600   35.8040 C.ar   33  TYR33       0.0417
     21  CE2        4.1030   72.3610   37.6080 C.ar   33  TYR33       0.0417
     22  CZ         3.8250   71.8370   36.3580 C.ar   33  TYR33       0.1957
     23  OH         4.8330   71.2030   35.6750 O.3    33  TYR33      -0.2866
     24  N         14.0060   71.0220   37.1010 N.3    85  TYR85      -0.1227
     25  CA        12.8130   70.3170   36.6750 C.3    85  TYR85       0.1736
     26  C         11.8800   71.3010   35.9750 C.2    85  TYR85       0.2595
     27  O         11.5700   71.1290   34.8020 O.2    85  TYR85      -0.2718
     28  CB        12.1400   69.6690   37.8880 C.3    85  TYR85       0.0548
     29  CG        11.1130   68.6240   37.5280 C.ar   85  TYR85      -0.0200
     30  CD1        9.8760   68.9820   36.9870 C.ar   85  TYR85      -0.0009
     31  CD2       11.3970   67.2690   37.6830 C.ar   85  TYR85      -0.0009
     32  CE1        8.9460   68.0110   36.6060 C.ar   85  TYR85       0.0417
     33  CE2       10.4770   66.2920   37.3040 C.ar   85  TYR85       0.0417
     34  CZ         9.2600   66.6670   36.7650 C.ar   85  TYR85       0.1957
     35  OH         8.3670   65.7000   36.3550 O.3    85  TYR85      -0.2866
     36  N         11.4380   72.3350   36.6900 N.am   86  ASP86      -0.1974
     37  CA        10.5460   73.3460   36.1070 C.3    86  ASP86       0.1709
     38  C         11.1020   74.7570   36.1940 C.2    86  ASP86       0.2293
     39  O         11.6190   75.1660   37.2330 O.2    86  ASP86      -0.2864
     40  CB         9.1560   73.3330   36.7680 C.3    86  ASP86       0.1436
     41  CG         8.2890   72.1870   36.2810 C.2    86  ASP86       0.3671
     42  OD1        8.4770   71.7830   35.1220 O.co2  86  ASP86      -0.2456
     43  OD2        7.4000   71.7130   37.0240 O.co2  86  ASP86      -0.2456
     44  N         16.1680   71.8150   31.0340 N.3   121  GLN121     -0.1245
     45  CA        15.2450   71.2060   30.0850 C.3   121  GLN121      0.1566
     46  C         15.5350   71.5690   28.6240 C.2   121  GLN121      0.2260
     47  O         15.4980   72.7410   28.2490 O.2   121  GLN121     -0.2867
     48  CB        13.8180   71.6250   30.4460 C.3   121  GLN121      0.0367
     49  CG        12.7270   71.0500   29.5650 C.3   121  GLN121      0.0905
     50  CD        11.3490   71.5560   29.9580 C.2   121  GLN121      0.2608
     51  OE1       10.3390   71.1820   29.3620 O.2   121  GLN121     -0.2717
     52  NE2       11.3050   72.4150   30.9650 N.am  121  GLN121     -0.0878
     53  N          8.6490   71.3100   25.4680 N.3   125  GLY125     -0.1225
     54  CA         7.5120   71.2850   26.3670 C.3   125  GLY125      0.1811
     55  C          6.5480   70.1300   26.1990 C.2   125  GLY125      0.2280
     56  O          6.2530   69.4180   27.1590 O.2   125  GLY125     -0.2866
     57  N          6.7170   67.3360   25.5130 N.3   127  ASP127     -0.1239
     58  CA         7.2510   66.1220   26.1280 C.3   127  ASP127      0.1674
     59  C          6.3370   65.4110   27.1310 C.2   127  ASP127      0.2266
     60  O          6.3850   65.6820   28.3310 O.2   127  ASP127     -0.2867
     61  CB         8.5830   66.4360   26.8160 C.3   127  ASP127      0.1410
     62  CG         9.5440   67.2010   25.9220 C.2   127  ASP127      0.3668
     63  OD1        9.7800   66.7600   24.7760 O.co2 127  ASP127     -0.2456
     64  OD2       10.0780   68.2370   26.3750 O.co2 127  ASP127     -0.2456
     65  N         11.6090   63.3040   28.5480 N.3   131  ALA131     -0.1231
     66  CA        12.1580   64.4080   29.3240 C.3   131  ALA131      0.1694
     67  C         13.6490   64.5220   29.0560 C.2   131  ALA131      0.2592
     68  O         14.4530   63.7820   29.6190 O.2   131  ALA131     -0.2718
     69  CB        11.9070   64.1810   30.8090 C.3   131  ALA131      0.0304
     70  N         14.0160   65.4570   28.1900 N.am  132  LEU132     -0.1966
     71  CA        15.4090   65.6490   27.8440 C.3   132  LEU132      0.1728
     72  C         16.0430   66.7750   28.6420 C.2   132  LEU132      0.2616
     73  O         15.4030   67.7880   28.9320 O.2   132  LEU132     -0.2715
     74  CB        15.5380   65.9430   26.3490 C.3   132  LEU132      0.0311
     75  CG        16.9680   66.1270   25.8400 C.3   132  LEU132      0.0022
     76  CD1       17.7890   64.8970   26.1880 C.3   132  LEU132      0.0001
     77  CD2       16.9570   66.3580   24.3370 C.3   132  LEU132      0.0001
     78  N         17.3050   66.5840   29.0040 N.am  133  TYR133     -0.1974
     79  CA        18.0390   67.5920   29.7460 C.3   133  TYR133      0.1639
     80  C         19.3650   67.8570   29.0560 C.2   133  TYR133      0.2290
     81  O         19.9340   66.9750   28.4160 O.2   133  TYR133     -0.2864
     82  CB        18.3100   67.1490   31.1860 C.3   133  TYR133      0.0560
     83  CG        17.0860   66.9790   32.0580 C.ar  133  TYR133     -0.0198
     84  CD1       16.2550   65.8640   31.9280 C.ar  133  TYR133     -0.0009
     85  CD2       16.7700   67.9290   33.0300 C.ar  133  TYR133     -0.0009
     86  CE1       15.1410   65.6970   32.7520 C.ar  133  TYR133      0.0417
     87  CE2       15.6650   67.7760   33.8550 C.ar  133  TYR133      0.0417
     88  CZ        14.8550   66.6590   33.7180 C.ar  133  TYR133      0.1957
     89  OH        13.7820   66.4990   34.5650 O.3   133  TYR133     -0.2866
@<TRIPOS>BOND
     1    77    75    1
     2    63    62   ar
     3    53    54    1
     4    57    58    1
     5    75    76    1
     6    75    74    1
     7    62    64   ar
     8    62    61    1
     9    58    61    1
    10    58    59    1
    11    55    54    1
    12    55    56    2
    13    74    71    1
    14    59    60    2
    15    71    70    1
    16    71    72    1
    17    70    67   am
    18    47    46    2
    19    81    80    2
    20    65    66    1
    21    46    45    1
    22    72    73    2
    23    72    78   am
    24    78    79    1
    25    67    66    1
    26    67    68    2
    27    80    79    1
    28    66    69    1
    29    51    50    2
    30    49    50    1
    31    49    48    1
    32    79    82    1
    33     4     3    2
    34    50    52   am
    35    45    48    1
    36    45    44    1
    37     3     2    1
    38     2     1    1
    39     2     5    1
    40    82    83    1
    41     7     9   ar
    42     7     6   ar
    43    84    83   ar
    44    84    86   ar
    45     5     6    1
    46    83    85   ar
    47     9    11   ar
    48     6     8   ar
    49    86    88   ar
    50    85    87   ar
    51    11    10   ar
    52    88    87   ar
    53    88    89    1
    54     8    10   ar
    55    27    26    2
    56    42    41   ar
    57    23    22    1
    58    20    22   ar
    59    20    18   ar
    60    26    25    1
    61    26    36   am
    62    37    38    1
    63    37    36    1
    64    37    40    1
    65    38    39    2
    66    41    40    1
    67    41    43   ar
    68    35    34    1
    69    22    21   ar
    70    18    17   ar
    71    32    34   ar
    72    32    30   ar
    73    25    24    1
    74    25    28    1
    75    34    33   ar
    76    30    29   ar
    77    33    31   ar
    78    29    31   ar
    79    29    28    1
    80    21    19   ar
    81    17    19   ar
    82    17    16    1
    83    12    13    1
    84    16    13    1
    85    13    14    1
    86    14    15    2
