@<TRIPOS>MOLECULE
tmp/1bo4B00.pdb
 145 138 0 0 0
SMALL
GASTEIGER

@<TRIPOS>ATOM
      1  N         30.6470   47.7750   32.8530 N.3    26  GLU26      -0.1231
      2  CA        29.6330   47.7670   31.8070 C.3    26  GLU26       0.1699
      3  C         29.4320   49.0950   31.0780 C.2    26  GLU26       0.2592
      4  O         28.9380   49.1110   29.9510 O.2    26  GLU26      -0.2718
      5  CB        28.3030   47.2780   32.3760 C.3    26  GLU26       0.0402
      6  CG        28.3660   45.8700   32.9520 C.3    26  GLU26       0.1161
      7  CD        28.9200   44.8480   31.9670 C.2    26  GLU26       0.3649
      8  OE1       28.4300   44.8060   30.8150 O.co2  26  GLU26      -0.2457
      9  OE2       29.8350   44.0770   32.3490 O.co2  26  GLU26      -0.2457
     10  N         29.8110   50.2000   31.7130 N.am   27  PHE27      -0.1976
     11  CA        29.6860   51.5180   31.1020 C.3    27  PHE27       0.1639
     12  C         31.0030   51.9430   30.4460 C.2    27  PHE27       0.2290
     13  O         31.0810   52.9890   29.8060 O.2    27  PHE27      -0.2864
     14  CB        29.2960   52.5580   32.1540 C.3    27  PHE27       0.0560
     15  CG        27.8970   52.4100   32.6770 C.ar   27  PHE27      -0.0200
     16  CD1       26.9230   51.7490   31.9390 C.ar   27  PHE27      -0.0042
     17  CD2       27.5430   52.9650   33.9060 C.ar   27  PHE27      -0.0042
     18  CE1       25.6190   51.6430   32.4160 C.ar   27  PHE27      -0.0003
     19  CE2       26.2460   52.8620   34.3890 C.ar   27  PHE27      -0.0003
     20  CZ        25.2830   52.2000   33.6440 C.ar   27  PHE27      -0.0000
     21  N         21.5720   51.6570   35.0080 N.3    87  LEU87      -0.1231
     22  CA        21.0820   50.2830   34.9400 C.3    87  LEU87       0.1693
     23  C         22.0640   49.5060   34.0680 C.2    87  LEU87       0.2592
     24  O         22.3500   49.8980   32.9390 O.2    87  LEU87      -0.2718
     25  CB        19.6960   50.2370   34.2940 C.3    87  LEU87       0.0284
     26  CG        18.8340   48.9880   34.5030 C.3    87  LEU87       0.0019
     27  CD1       17.7180   49.0010   33.4590 C.3    87  LEU87       0.0001
     28  CD2       19.6480   47.7230   34.3560 C.3    87  LEU87       0.0001
     29  N         22.5880   48.4070   34.5900 N.am   88  ALA88      -0.1966
     30  CA        23.5300   47.6190   33.8180 C.3    88  ALA88       0.1728
     31  C         23.5750   46.1790   34.2920 C.2    88  ALA88       0.2616
     32  O         23.4180   45.8900   35.4810 O.2    88  ALA88      -0.2715
     33  CB        24.9230   48.2380   33.8920 C.3    88  ALA88       0.0334
     34  N         23.7830   45.2870   33.3320 N.am   89  VAL89      -0.1977
     35  CA        23.8770   43.8620   33.5850 C.3    89  VAL89       0.1596
     36  C         25.2380   43.3600   33.1150 C.2    89  VAL89       0.2287
     37  O         25.7690   43.8300   32.1050 O.2    89  VAL89      -0.2864
     38  CB        22.7570   43.1050   32.8470 C.3    89  VAL89       0.0276
     39  CG1       22.9870   41.6050   32.9300 C.3    89  VAL89       0.0022
     40  CG2       21.4030   43.4620   33.4690 C.3    89  VAL89       0.0022
     41  N         26.1500   38.0270   31.2810 N.3    93  HIS93      -0.1226
     42  CA        24.8320   37.5800   31.7190 C.3    93  HIS93       0.1752
     43  C         23.7090   38.3240   30.9910 C.2    93  HIS93       0.2596
     44  O         22.6090   38.4760   31.5290 O.2    93  HIS93      -0.2718
     45  CB        24.6620   37.7910   33.2340 C.3    93  HIS93       0.0759
     46  CG        25.6490   37.0430   34.0770 C.ar   93  HIS93       0.0818
     47  ND1       26.9900   37.3500   34.1110 N.ar   93  HIS93      -0.2268
     48  CD2       25.4820   35.9900   34.9180 C.ar   93  HIS93       0.1154
     49  CE1       27.6110   36.5220   34.9350 C.ar   93  HIS93       0.1986
     50  NE2       26.7190   35.6880   35.4350 N.ar   93  HIS93      -0.2212
     51  N         23.9860   38.7810   29.7720 N.am   94  ARG94      -0.1966
     52  CA        22.9970   39.5150   28.9820 C.3    94  ARG94       0.1729
     53  C         21.8720   38.6520   28.4000 C.2    94  ARG94       0.2616
     54  O         22.0580   37.4770   28.0960 O.2    94  ARG94      -0.2715
     55  CB        23.6790   40.2550   27.8200 C.3    94  ARG94       0.0348
     56  CG        24.7030   41.3060   28.2180 C.3    94  ARG94       0.0492
     57  CD        24.0900   42.4260   29.0470 C.3    94  ARG94       0.2205
     58  NE        25.1030   43.4020   29.4320 N.pl3  94  ARG94      -0.0865
     59  CZ        25.6850   44.2510   28.5930 C.cat  94  ARG94       0.5346
     60  NH1       25.3540   44.2500   27.3070 N.pl3  94  ARG94       0.1354
     61  NH2       26.6240   45.0780   29.0360 N.pl3  94  ARG94       0.1354
     62  N         20.7040   39.2610   28.2340 N.am   95  ARG95      -0.1977
     63  CA        19.5390   38.5960   27.6570 C.3    95  ARG95       0.1597
     64  C         19.0830   37.3740   28.4570 C.2    95  ARG95       0.2287
     65  O         18.6050   36.3990   27.8880 O.2    95  ARG95      -0.2864
     66  CB        19.8470   38.1880   26.2070 C.3    95  ARG95       0.0334
     67  CG        20.5680   39.2760   25.4040 C.3    95  ARG95       0.0492
     68  CD        19.6740   40.3260   24.7350 C.3    95  ARG95       0.2205
     69  NE        19.1480   39.8390   23.4630 N.pl3  95  ARG95      -0.0865
     70  CZ        18.7020   40.6110   22.4750 C.cat  95  ARG95       0.5346
     71  NH1       18.7050   41.9290   22.5890 N.pl3  95  ARG95       0.1354
     72  NH2       18.2690   40.0560   21.3530 N.pl3  95  ARG95       0.1354
     73  N         17.2000   38.0740   31.2810 N.3    97  GLY97      -0.1210
     74  CA        16.0790   38.6200   32.0200 C.3    97  GLY97       0.1956
     75  C         16.4470   39.2760   33.3430 C.2    97  GLY97       0.2612
     76  O         15.5730   39.5250   34.1720 O.2    97  GLY97      -0.2717
     77  N         17.7300   39.5630   33.5420 N.am   98  ILE98      -0.1965
     78  CA        18.1870   40.1840   34.7820 C.3    98  ILE98       0.1727
     79  C         17.7210   41.6300   34.9110 C.2    98  ILE98       0.2616
     80  O         17.1970   42.0220   35.9530 O.2    98  ILE98      -0.2715
     81  CB        19.7280   40.1250   34.9000 C.3    98  ILE98       0.0290
     82  CG1       20.1730   38.6660   35.0230 C.3    98  ILE98       0.0022
     83  CG2       20.2020   40.9510   36.1000 C.3    98  ILE98       0.0023
     84  CD1       21.6900   38.4710   35.0180 C.3    98  ILE98       0.0001
     85  N         17.9180   42.4300   33.8680 N.am   99  ALA99      -0.1963
     86  CA        17.4720   43.8130   33.9170 C.3    99  ALA99       0.1728
     87  C         15.9580   43.7870   34.1560 C.2    99  ALA99       0.2616
     88  O         15.4430   44.4390   35.0720 O.2    99  ALA99      -0.2715
     89  CB        17.7920   44.5280   32.5990 C.3    99  ALA99       0.0334
     90  N         15.2620   43.0110   33.3270 N.am  100  THR100     -0.1951
     91  CA        13.8160   42.8570   33.4210 C.3   100  THR100      0.1897
     92  C         13.4110   42.5010   34.8430 C.2   100  THR100      0.2313
     93  O         12.3680   42.9390   35.3270 O.2   100  THR100     -0.2863
     94  CB        13.3150   41.7420   32.4830 C.3   100  THR100      0.1794
     95  OG1       13.6100   42.0960   31.1290 O.3   100  THR100     -0.2208
     96  CG2       11.8110   41.5360   32.6380 C.3   100  THR100      0.0378
     97  N         14.0430   45.5610   37.0560 N.3   103  ILE103     -0.1245
     98  CA        12.9750   46.5070   36.7800 C.3   103  ILE103      0.1561
     99  C         11.6760   46.0880   37.4610 C.2   103  ILE103      0.2260
    100  O         10.9560   46.9300   37.9970 O.2   103  ILE103     -0.2867
    101  CB        12.7570   46.6680   35.2620 C.3   103  ILE103      0.0252
    102  CG1       13.9080   47.4940   34.6760 C.3   103  ILE103      0.0019
    103  CG2       11.4060   47.3110   34.9850 C.3   103  ILE103      0.0019
    104  CD1       13.8510   47.6740   33.1750 C.3   103  ILE103      0.0001
    105  N          9.5120   48.2100   40.2360 N.3   107  LYS107     -0.1245
    106  CA         8.0780   48.5050   40.1970 C.3   107  LYS107      0.1561
    107  C          7.4610   48.1750   41.5510 C.2   107  LYS107      0.2260
    108  O          6.5490   48.8540   42.0260 O.2   107  LYS107     -0.2867
    109  CB         7.3840   47.6790   39.1150 C.3   107  LYS107      0.0271
    110  CG         7.7880   48.0220   37.6890 C.3   107  LYS107      0.0035
    111  CD         7.1180   47.0660   36.7070 C.3   107  LYS107      0.0206
    112  CE         7.4590   47.3960   35.2710 C.3   107  LYS107      0.1093
    113  NZ         6.9390   46.3630   34.3210 N.3   107  LYS107     -0.1314
    114  N         13.3070   55.9030   32.5900 N.3   120  VAL120     -0.1231
    115  CA        14.5800   55.2210   32.3780 C.3   120  VAL120      0.1692
    116  C         15.4600   56.1420   31.5450 C.2   120  VAL120      0.2591
    117  O         14.9810   56.7790   30.6090 O.2   120  VAL120     -0.2718
    118  CB        14.3980   53.8960   31.6100 C.3   120  VAL120      0.0266
    119  CG1       15.6870   53.0920   31.6530 C.3   120  VAL120      0.0020
    120  CG2       13.2500   53.1030   32.1980 C.3   120  VAL120      0.0020
    121  N         16.7450   56.2090   31.8770 N.am  121  GLN121     -0.1979
    122  CA        17.6640   57.0830   31.1550 C.3   121  GLN121      0.1601
    123  C         17.8820   56.5930   29.7210 C.2   121  GLN121      0.2287
    124  O         18.3420   55.4710   29.5030 O.2   121  GLN121     -0.2864
    125  CB        19.0040   57.1680   31.9040 C.3   121  GLN121      0.0394
    126  CG        19.8530   58.3810   31.5270 C.3   121  GLN121      0.0908
    127  CD        21.1230   58.4920   32.3560 C.2   121  GLN121      0.2608
    128  OE1       22.0390   57.6830   32.2200 O.2   121  GLN121     -0.2717
    129  NE2       21.1760   59.4900   33.2290 N.am  121  GLN121     -0.0878
    130  N         19.2330   55.4160   26.6030 N.3   123  ASP123     -0.1239
    131  CA        20.5570   54.8720   26.3910 C.3   123  ASP123      0.1674
    132  C         21.0670   54.6220   24.9850 C.2   123  ASP123      0.2266
    133  O         20.6960   53.6540   24.3170 O.2   123  ASP123     -0.2867
    134  CB        20.7140   53.5780   27.1850 C.3   123  ASP123      0.1410
    135  CG        20.0150   52.4080   26.5330 C.2   123  ASP123      0.3668
    136  OD1       18.8130   52.5290   26.2100 O.co2 123  ASP123     -0.2456
    137  OD2       20.6720   51.3630   26.3420 O.co2 123  ASP123     -0.2456
    138  N          8.7450   54.4710   31.5050 N.3   136  LEU136     -0.1245
    139  CA         8.6950   53.0110   31.4590 C.3   136  LEU136      0.1561
    140  C          7.2870   52.3690   31.5620 C.2   136  LEU136      0.2260
    141  O          6.3540   53.0880   31.9970 O.2   136  LEU136     -0.2867
    142  CB         9.6520   52.4680   32.5920 C.3   136  LEU136      0.0270
    143  CG         9.7970   50.9480   32.7130 C.3   136  LEU136      0.0019
    144  CD1       11.1460   50.5680   33.3030 C.3   136  LEU136      0.0001
    145  CD2        8.6650   50.3150   33.5030 C.3   136  LEU136      0.0001
@<TRIPOS>BOND
     1    72    70    1
     2    70    71    1
     3    70    69    2
     4    69    68    1
     5   133   132    2
     6    68    67    1
     7   132   131    1
     8    67    66    1
     9    66    63    1
    10   136   135   ar
    11   137   135   ar
    12   131   130    1
    13   131   134    1
    14   135   134    1
    15    60    59    1
    16    63    62    1
    17    63    64    1
    18    55    56    1
    19    55    52    1
    20    65    64    2
    21    54    53    2
    22    56    57    1
    23    62    53   am
    24    53    52    1
    25    59    61    1
    26    59    58    2
    27    52    51    1
    28    57    58    1
    29   124   123    2
    30   123   122    1
    31    51    43   am
    32    13    12    2
    33     4     3    2
    34    12    11    1
    35   117   116    2
    36     8     7   ar
    37    43    44    2
    38    43    42    1
    39     3    10   am
    40     3     2    1
    41    11    10    1
    42    11    14    1
    43    95    94    1
    44   122   121    1
    45   122   125    1
    46    41    42    1
    47    73    74    1
    48   139   138    1
    49   139   140    1
    50   139   142    1
    51   126   125    1
    52   126   127    1
    53   116   121   am
    54   116   115    1
    55   140   141    2
    56   118   119    1
    57   118   120    1
    58   118   115    1
    59    42    45    1
    60     2     5    1
    61     2     1    1
    62    16    18   ar
    63    16    15   ar
    64     7     9   ar
    65     7     6    1
    66    74    75    1
    67    37    36    2
    68    14    15    1
    69   128   127    2
    70   127   129   am
    71     5     6    1
    72   115   114    1
    73    18    20   ar
    74    94    96    1
    75    94    91    1
    76   142   143    1
    77    89    86    1
    78    15    17   ar
    79   143   144    1
    80   143   145    1
    81    38    39    1
    82    38    40    1
    83    38    35    1
    84    24    23    2
    85    36    35    1
    86   104   102    1
    87    45    46    1
    88    90    91    1
    89    90    87   am
    90    34    35    1
    91    34    31   am
    92    75    77   am
    93    75    76    2
    94    91    92    1
    95    27    26    1
    96    77    78    1
    97    20    19   ar
    98    30    33    1
    99    30    31    1
   100    30    29    1
   101    85    86    1
   102    85    79   am
   103    17    19   ar
   104    86    87    1
   105    23    29   am
   106    23    22    1
   107    46    47   ar
   108    46    48   ar
   109    47    49   ar
   110    87    88    2
   111    31    32    2
   112    25    26    1
   113    25    22    1
   114   113   112    1
   115    28    26    1
   116   102   101    1
   117    78    81    1
   118    78    79    1
   119    92    93    2
   120    81    82    1
   121    81    83    1
   122    79    80    2
   123    48    50   ar
   124    49    50   ar
   125    22    21    1
   126   103   101    1
   127    84    82    1
   128   101    98    1
   129   112   111    1
   130   111   110    1
   131    98    97    1
   132    98    99    1
   133    99   100    2
   134   110   109    1
   135   109   106    1
   136   106   105    1
   137   106   107    1
   138   107   108    2
