@<TRIPOS>MOLECULE
tmp/1boaA00.pdb
 193 186 0 0 0
SMALL
GASTEIGER

@<TRIPOS>ATOM
      1  N         23.7150   31.3400    9.7030 N.3    95  PHE95      -0.1241
      2  CA        23.7260   32.1180   10.9550 C.3    95  PHE95       0.1605
      3  C         25.1340   32.0330   11.5480 C.2    95  PHE95       0.2264
      4  O         26.0130   31.3010   11.0930 O.2    95  PHE95      -0.2867
      5  CB        22.6590   31.6500   11.9510 C.3    95  PHE95       0.0534
      6  CG        22.7110   30.1840   12.3300 C.ar   95  PHE95      -0.0203
      7  CD1       23.5870   29.7320   13.3050 C.ar   95  PHE95      -0.0042
      8  CD2       21.8930   29.2840   11.6380 C.ar   95  PHE95      -0.0042
      9  CE1       23.6150   28.3730   13.5860 C.ar   95  PHE95      -0.0003
     10  CE2       21.9340   27.9320   11.9550 C.ar   95  PHE95      -0.0003
     11  CZ        22.8030   27.4710   12.9220 C.ar   95  PHE95      -0.0000
     12  N         24.0430   29.2530   24.6360 N.3   106  ALA106     -0.1231
     13  CA        23.7080   29.5240   23.2580 C.3   106  ALA106      0.1694
     14  C         23.8990   31.0180   22.9560 C.2   106  ALA106      0.2592
     15  O         23.8440   31.8080   23.8740 O.2   106  ALA106     -0.2718
     16  CB        22.2410   29.1560   22.9890 C.3   106  ALA106      0.0304
     17  N         24.0810   31.2540   21.6700 N.am  107  HIS107     -0.1976
     18  CA        24.0550   32.6380   21.1340 C.3   107  HIS107      0.1656
     19  C         25.2020   33.5280   21.5680 C.2   107  HIS107      0.2291
     20  O         25.0980   34.7790   21.4440 O.2   107  HIS107     -0.2864
     21  CB        22.6820   33.2740   21.4030 C.3   107  HIS107      0.0771
     22  CG        21.5260   32.6550   20.6900 C.ar  107  HIS107      0.0820
     23  ND1       20.2200   33.0340   20.9380 N.ar  107  HIS107     -0.2267
     24  CD2       21.4310   31.6050   19.8290 C.ar  107  HIS107      0.1154
     25  CE1       19.4060   32.3110   20.2020 C.ar  107  HIS107      0.1986
     26  NE2       20.1000   31.4260   19.5300 N.ar  107  HIS107     -0.2212
     27  N         27.9190   25.6410   17.3410 N.3   127  ASP127     -0.1239
     28  CA        26.5960   25.5730   16.6710 C.3   127  ASP127      0.1674
     29  C         26.6840   26.4470   15.4260 C.2   127  ASP127      0.2266
     30  O         26.8880   27.6650   15.5370 O.2   127  ASP127     -0.2867
     31  CB        25.5370   26.0720   17.6650 C.3   127  ASP127      0.1410
     32  CG        24.1190   25.9140   17.1780 C.2   127  ASP127      0.3668
     33  OD1       23.9190   25.6590   15.9680 O.co2 127  ASP127     -0.2456
     34  OD2       23.1580   25.9690   17.9860 O.co2 127  ASP127     -0.2456
     35  N         20.6640   23.4090   10.7700 N.3   138  ASP138     -0.1239
     36  CA        21.1480   23.8420   12.0880 C.3   138  ASP138      0.1674
     37  C         21.6500   22.5860   12.8150 C.2   138  ASP138      0.2266
     38  O         20.8450   21.6870   13.0330 O.2   138  ASP138     -0.2867
     39  CB        19.9690   24.4900   12.8280 C.3   138  ASP138      0.1410
     40  CG        20.4240   25.2160   14.0870 C.2   138  ASP138      0.3668
     41  OD1       21.5950   25.0290   14.4990 O.co2 138  ASP138     -0.2456
     42  OD2       19.6330   25.9600   14.6940 O.co2 138  ASP138     -0.2456
     43  N         13.6710   26.3630   29.6390 N.3   203  ASN203     -0.1225
     44  CA        13.2180   27.4630   28.7820 C.3   203  ASN203      0.1785
     45  C         14.0300   27.6050   27.4960 C.2   203  ASN203      0.2597
     46  O         13.9760   28.6610   26.8470 O.2   203  ASN203     -0.2718
     47  CB        13.1680   28.8000   29.5210 C.3   203  ASN203      0.1169
     48  CG        14.4900   29.3310   30.0500 C.2   203  ASN203      0.2627
     49  OD1       15.4110   28.5250   30.2190 O.2   203  ASN203     -0.2716
     50  ND2       14.5590   30.6270   30.3500 N.am  203  ASN203     -0.0877
     51  N         14.7240   26.5530   27.0880 N.am  204  LEU204     -0.1966
     52  CA        15.2980   26.4350   25.7620 C.3   204  LEU204      0.1728
     53  C         14.5310   25.3390   25.0010 C.2   204  LEU204      0.2616
     54  O         13.8360   24.5040   25.5950 O.2   204  LEU204     -0.2715
     55  CB        16.7890   26.1230   25.7670 C.3   204  LEU204      0.0311
     56  CG        17.7360   27.2080   26.2700 C.3   204  LEU204      0.0022
     57  CD1       19.1880   26.7170   26.3010 C.3   204  LEU204      0.0001
     58  CD2       17.6680   28.4630   25.3730 C.3   204  LEU204      0.0001
     59  N         14.5110   25.4790   23.6810 N.am  205  ASN205     -0.1958
     60  CA        13.5920   24.6930   22.8470 C.3   205  ASN205      0.1819
     61  C         14.2500   24.3900   21.5100 C.2   205  ASN205      0.2622
     62  O         15.0430   25.2250   21.0470 O.2   205  ASN205     -0.2715
     63  CB        12.2810   25.4270   22.5570 C.3   205  ASN205      0.1195
     64  CG        11.4410   25.8880   23.7080 C.2   205  ASN205      0.2630
     65  OD1       11.4450   27.0680   24.0870 O.2   205  ASN205     -0.2716
     66  ND2       10.7490   24.9970   24.3890 N.am  205  ASN205     -0.0877
     67  N         13.8740   23.3090   20.8460 N.am  206  GLY206     -0.1940
     68  CA        14.0740   23.1830   19.4050 C.3   206  GLY206      0.2014
     69  C         12.9770   23.9340   18.6280 C.2   206  GLY206      0.2638
     70  O         12.1190   24.6110   19.1770 O.2   206  GLY206     -0.2714
     71  N         13.0480   23.8140   17.3020 N.am  207  HIS207     -0.1973
     72  CA        12.1590   24.6840   16.4950 C.3   207  HIS207      0.1656
     73  C         11.9890   24.1820   15.0850 C.2   207  HIS207      0.2291
     74  O         12.8870   23.5490   14.5060 O.2   207  HIS207     -0.2864
     75  CB        12.7450   26.1160   16.4790 C.3   207  HIS207      0.0771
     76  CG        14.1650   26.1490   15.9950 C.ar  207  HIS207      0.0820
     77  ND1       14.5690   26.3730   14.6940 N.ar  207  HIS207     -0.2267
     78  CD2       15.2860   25.9480   16.7550 C.ar  207  HIS207      0.1154
     79  CE1       15.8890   26.3170   14.6710 C.ar  207  HIS207      0.1986
     80  NE2       16.3420   26.0700   15.8760 N.ar  207  HIS207     -0.2212
     81  N         15.1090   30.5950   10.0750 N.3   214  ILE214     -0.1231
     82  CA        15.6330   29.6280   11.0400 C.3   214  ILE214      0.1692
     83  C         14.5990   29.2190   12.0800 C.2   214  ILE214      0.2592
     84  O         14.6550   28.0380   12.5140 O.2   214  ILE214     -0.2718
     85  CB        16.9250   30.1890   11.6870 C.3   214  ILE214      0.0266
     86  CG1       17.4980   29.2300   12.7470 C.3   214  ILE214      0.0019
     87  CG2       16.6480   31.5090   12.4100 C.3   214  ILE214      0.0020
     88  CD1       18.2060   28.0770   12.0200 C.3   214  ILE214      0.0001
     89  N         13.6600   30.0550   12.4760 N.am  215  HIS215     -0.1976
     90  CA        12.6540   29.6440   13.4390 C.3   215  HIS215      0.1656
     91  C         11.3020   29.8660   12.7560 C.2   215  HIS215      0.2291
     92  O         10.8560   31.0010   12.7670 O.2   215  HIS215     -0.2864
     93  CB        12.7790   30.5530   14.6930 C.3   215  HIS215      0.0771
     94  CG        11.9000   30.0460   15.7970 C.ar  215  HIS215      0.0820
     95  ND1       10.7160   29.3770   15.5850 N.ar  215  HIS215     -0.2267
     96  CD2       12.0470   30.1490   17.1450 C.ar  215  HIS215      0.1154
     97  CE1       10.1680   29.0580   16.7430 C.ar  215  HIS215      0.1986
     98  NE2       10.9460   29.5260   17.7140 N.ar  215  HIS215     -0.2212
     99  N          7.6180   25.4260   18.3690 N.3   219  THR219     -0.1218
    100  CA         8.7700   25.0670   19.2140 C.3   219  THR219      0.1862
    101  C          8.6860   23.6200   19.6510 C.2   219  THR219      0.2287
    102  O          7.5990   23.0650   19.7910 O.2   219  THR219     -0.2866
    103  CB         8.9080   26.0160   20.4140 C.3   219  THR219      0.1770
    104  OG1        7.6870   25.9850   21.1490 O.3   219  THR219     -0.2211
    105  CG2        9.1350   27.4560   19.9510 C.3   219  THR219      0.0375
    106  N         16.9740   19.8680   19.1420 N.3   240  GLU240     -0.1245
    107  CA        18.1640   20.2560   19.8930 C.3   240  GLU240      0.1567
    108  C         17.8800   20.0570   21.3730 C.2   240  GLU240      0.2260
    109  O         16.7350   20.3200   21.7610 O.2   240  GLU240     -0.2867
    110  CB        18.5920   21.6950   19.6870 C.3   240  GLU240      0.0388
    111  CG        17.6610   22.8470   19.8890 C.3   240  GLU240      0.1160
    112  CD        18.3150   24.0930   19.2840 C.2   240  GLU240      0.3649
    113  OE1       19.5210   24.3560   19.5450 O.co2 240  GLU240     -0.2457
    114  OE2       17.6660   24.8340   18.5380 O.co2 240  GLU240     -0.2457
    115  N         19.5540   20.6270   25.4430 N.3   242  PHE242     -0.1241
    116  CA        20.5440   21.2840   26.2870 C.3   242  PHE242      0.1605
    117  C         20.4780   20.7190   27.7060 C.2   242  PHE242      0.2264
    118  O         19.3380   20.6660   28.2190 O.2   242  PHE242     -0.2867
    119  CB        20.3360   22.7930   26.4080 C.3   242  PHE242      0.0534
    120  CG        20.4330   23.5970   25.1240 C.ar  242  PHE242     -0.0203
    121  CD1       19.3240   23.7070   24.2970 C.ar  242  PHE242     -0.0042
    122  CD2       21.6180   24.2120   24.7810 C.ar  242  PHE242     -0.0042
    123  CE1       19.4090   24.4490   23.1280 C.ar  242  PHE242     -0.0003
    124  CE2       21.7040   24.9600   23.5960 C.ar  242  PHE242     -0.0003
    125  CZ        20.5890   25.0750   22.7690 C.ar  242  PHE242     -0.0000
    126  N         17.8930   29.4940   31.5770 N.3   250  VAL250     -0.1231
    127  CA        18.8300   30.5240   31.1400 C.3   250  VAL250      0.1692
    128  C         18.2070   31.9240   31.2590 C.2   250  VAL250      0.2592
    129  O         16.9840   32.1140   31.3630 O.2   250  VAL250     -0.2718
    130  CB        19.2770   30.3700   29.6710 C.3   250  VAL250      0.0266
    131  CG1       20.1920   29.1660   29.4520 C.3   250  VAL250      0.0020
    132  CG2       18.0390   30.2320   28.8020 C.3   250  VAL250      0.0020
    133  N         19.1040   32.8920   31.3680 N.am  251  HIS251     -0.1962
    134  CA        18.7520   34.3050   31.2820 C.3   251  HIS251      0.1787
    135  C         19.6410   35.0010   30.2500 C.2   251  HIS251      0.2620
    136  O         20.7810   34.5640   30.0340 O.2   251  HIS251     -0.2715
    137  CB        18.9610   34.9600   32.6600 C.3   251  HIS251      0.0785
    138  CG        20.3730   34.9250   33.1520 C.ar  251  HIS251      0.0821
    139  ND1       20.9150   33.8720   33.8630 N.ar  251  HIS251     -0.2267
    140  CD2       21.3690   35.8320   33.0180 C.ar  251  HIS251      0.1154
    141  CE1       22.1870   34.1280   34.1380 C.ar  251  HIS251      0.1986
    142  NE2       22.4830   35.3200   33.6350 N.ar  251  HIS251     -0.2212
    143  N         19.2000   36.1660   29.7480 N.am  252  ASP252     -0.1971
    144  CA        20.0970   36.9560   28.8930 C.3   252  ASP252      0.1709
    145  C         21.3210   37.4790   29.6520 C.2   252  ASP252      0.2293
    146  O         21.2030   38.0260   30.7700 O.2   252  ASP252     -0.2864
    147  CB        19.3720   38.1710   28.3430 C.3   252  ASP252      0.1436
    148  CG        18.1650   37.9230   27.4990 C.2   252  ASP252      0.3671
    149  OD1       17.9030   36.8030   27.0080 O.co2 252  ASP252     -0.2456
    150  OD2       17.4180   38.9050   27.2700 O.co2 252  ASP252     -0.2456
    151  N         24.5860   38.5210   18.2620 N.3   258  HIS258     -0.1241
    152  CA        23.7150   37.9830   17.1900 C.3   258  HIS258      0.1621
    153  C         22.4390   38.7830   16.9670 C.2   258  HIS258      0.2264
    154  O         21.8350   39.3420   17.9140 O.2   258  HIS258     -0.2867
    155  CB        23.1790   36.6220   17.6620 C.3   258  HIS258      0.0745
    156  CG        24.0760   35.4520   17.6390 C.ar  258  HIS258      0.0817
    157  ND1       25.2910   35.4280   18.3000 N.ar  258  HIS258     -0.2268
    158  CD2       23.9030   34.2050   17.1120 C.ar  258  HIS258      0.1154
    159  CE1       25.8420   34.2190   18.1270 C.ar  258  HIS258      0.1986
    160  NE2       25.0050   33.4560   17.4190 N.ar  258  HIS258     -0.2212
    161  N         18.8960   39.5910   13.9610 N.3   260  MET260     -0.1245
    162  CA        18.2460   39.0780   12.7280 C.3   260  MET260      0.1570
    163  C         17.0190   39.9200   12.3990 C.2   260  MET260      0.2261
    164  O         16.2260   40.2950   13.2950 O.2   260  MET260     -0.2867
    165  CB        17.8650   37.5810   12.9590 C.3   260  MET260      0.0387
    166  CG        17.1730   36.8950   11.7480 C.3   260  MET260      0.0595
    167  SD        16.9610   35.1090   12.0950 S.3   260  MET260     -0.1393
    168  CE        15.7980   35.0950   13.4470 C.3   260  MET260      0.0692
    169  N         20.1500   35.2800   10.0950 N.3   290  ALA290     -0.1245
    170  CA        20.8070   35.9640   11.2330 C.3   290  ALA290      0.1562
    171  C         22.2190   36.3680   10.8400 C.2   290  ALA290      0.2260
    172  O         22.8700   35.7920    9.9500 O.2   290  ALA290     -0.2867
    173  CB        20.8330   34.9930   12.4330 C.3   290  ALA290      0.0290
    174  N         19.5710   39.0120   19.7610 N.3   320  TYR320     -0.1241
    175  CA        19.5430   37.6840   20.4030 C.3   320  TYR320      0.1605
    176  C         20.7870   37.5410   21.2680 C.2   320  TYR320      0.2264
    177  O         21.7960   36.9840   20.8260 O.2   320  TYR320     -0.2867
    178  CB        19.5570   36.6410   19.2620 C.3   320  TYR320      0.0534
    179  CG        18.2290   36.5670   18.5040 C.ar  320  TYR320     -0.0201
    180  CD1       18.0000   37.4140   17.4320 C.ar  320  TYR320     -0.0009
    181  CD2       17.2160   35.7090   18.9130 C.ar  320  TYR320     -0.0009
    182  CE1       16.7890   37.4020   16.7520 C.ar  320  TYR320      0.0417
    183  CE2       15.9950   35.6860   18.2310 C.ar  320  TYR320      0.0417
    184  CZ        15.8050   36.5240   17.1600 C.ar  320  TYR320      0.1957
    185  OH        14.5960   36.5410   16.4770 O.3   320  TYR320     -0.2866
    186  N         22.6910   33.3830   26.1320 N.3   323  LEU323     -0.1245
    187  CA        21.7190   32.7790   27.0440 C.3   323  LEU323      0.1561
    188  C         22.4720   31.8530   28.0150 C.2   323  LEU323      0.2260
    189  O         23.0740   30.8820   27.5560 O.2   323  LEU323     -0.2867
    190  CB        20.6720   31.9550   26.2830 C.3   323  LEU323      0.0270
    191  CG        19.8420   32.7360   25.2320 C.3   323  LEU323      0.0019
    192  CD1       18.9830   31.8260   24.3940 C.3   323  LEU323      0.0001
    193  CD2       19.0240   33.8230   25.9540 C.3   323  LEU323      0.0001
@<TRIPOS>BOND
     1     1     2    1
     2   172   171    2
     3    81    82    1
     4   169   170    1
     5    35    36    1
     6   171   170    1
     7     2     3    1
     8     2     5    1
     9    82    85    1
    10    82    83    1
    11     4     3    2
    12   170   173    1
    13     8    10   ar
    14     8     6   ar
    15    85    87    1
    16    85    86    1
    17   166   167    1
    18   166   165    1
    19     5     6    1
    20    10    11   ar
    21    88    86    1
    22    83    89   am
    23    83    84    2
    24    36    37    1
    25    36    39    1
    26   167   168    1
    27     6     7   ar
    28   163   162    1
    29   163   164    2
    30    89    90    1
    31   162   165    1
    32   162   161    1
    33    91    92    2
    34    91    90    1
    35    37    38    2
    36    39    40    1
    37    11     9   ar
    38     7     9   ar
    39    90    93    1
    40    40    41   ar
    41    40    42   ar
    42    74    73    2
    43    79    77   ar
    44    79    80   ar
    45    93    94    1
    46    77    76   ar
    47    73    72    1
    48    29    30    2
    49    29    28    1
    50    95    94   ar
    51    95    97   ar
    52    94    96   ar
    53    80    78   ar
    54    33    32   ar
    55    76    75    1
    56    76    78   ar
    57   185   184    1
    58    75    72    1
    59    72    71    1
    60    28    27    1
    61    28    31    1
    62    97    98   ar
    63   182   184   ar
    64   182   180   ar
    65   153   152    1
    66   153   154    2
    67   158   160   ar
    68   158   156   ar
    69    96    98   ar
    70   184   183   ar
    71    32    31    1
    72    32    34   ar
    73   152   155    1
    74   152   151    1
    75    71    69   am
    76   160   159   ar
    77   180   179   ar
    78   156   155    1
    79   156   157   ar
    80   159   157   ar
    81   183   181   ar
    82    99   100    1
    83   179   181   ar
    84   179   178    1
    85   114   112   ar
    86    69    70    2
    87    69    68    1
    88   106   107    1
    89   100   101    1
    90   100   103    1
    91   178   175    1
    92   112   113   ar
    93   112   111    1
    94    68    67    1
    95    26    24   ar
    96    26    25   ar
    97   101   102    2
    98   110   111    1
    99   110   107    1
   100   174   175    1
   101    24    22   ar
   102   107   108    1
   103   105   103    1
   104    25    23   ar
   105   175   176    1
   106   103   104    1
   107    22    23   ar
   108    22    21    1
   109   177   176    2
   110    67    61   am
   111    62    61    2
   112    18    21    1
   113    18    19    1
   114    18    17    1
   115   108   109    2
   116    20    19    2
   117    61    60    1
   118    17    14   am
   119    63    60    1
   120    63    64    1
   121   125   123   ar
   122   125   124   ar
   123    60    59    1
   124    14    13    1
   125    14    15    2
   126    16    13    1
   127   123   121   ar
   128    13    12    1
   129   124   122   ar
   130    59    53   am
   131    64    65    2
   132    64    66   am
   133   121   120   ar
   134   192   191    1
   135   122   120   ar
   136    53    54    2
   137    53    52    1
   138   120   119    1
   139   191   193    1
   140   191   190    1
   141    58    56    1
   142   115   116    1
   143    52    55    1
   144    52    51    1
   145    55    56    1
   146   186   187    1
   147    56    57    1
   148   190   187    1
   149   116   119    1
   150   116   117    1
   151    46    45    2
   152   149   148   ar
   153   187   188    1
   154    51    45   am
   155   150   148   ar
   156    45    44    1
   157   148   147    1
   158   189   188    2
   159   117   118    2
   160   147   144    1
   161    44    47    1
   162    44    43    1
   163   132   130    1
   164   144   145    1
   165   144   143    1
   166   131   130    1
   167    47    48    1
   168   145   146    2
   169   130   127    1
   170   143   135   am
   171   136   135    2
   172    48    49    2
   173    48    50   am
   174   135   134    1
   175   127   128    1
   176   127   126    1
   177   128   129    2
   178   128   133   am
   179   134   133    1
   180   134   137    1
   181   137   138    1
   182   140   138   ar
   183   140   142   ar
   184   138   139   ar
   185   142   141   ar
   186   139   141   ar
