@<TRIPOS>MOLECULE
tmp/1bogB00.pdb
 139 136 0 0 0
SMALL
GASTEIGER

@<TRIPOS>ATOM
      1  N         57.5850   34.6480  206.4020 N.3     1  GLN1       -0.1245
      2  CA        56.2170   34.8820  206.9130 C.3     1  GLN1        0.1566
      3  C         55.5760   36.1580  206.3860 C.2     1  GLN1        0.2260
      4  O         54.3440   36.1420  206.1560 O.2     1  GLN1       -0.2867
      5  CB        56.2450   34.8300  208.4430 C.3     1  GLN1        0.0367
      6  CG        55.3170   33.7750  209.0510 C.3     1  GLN1        0.0905
      7  CD        53.8720   34.2240  208.8820 C.2     1  GLN1        0.2608
      8  OE1       53.5480   35.3670  209.2300 O.2     1  GLN1       -0.2717
      9  NE2       53.0470   33.3420  208.3250 N.am    1  GLN1       -0.0878
     10  N         67.0970   33.2500  202.0480 N.3    30  THR30      -0.1203
     11  CA        67.8590   32.0910  201.5900 C.3    30  THR30       0.1994
     12  C         67.2570   30.7540  201.9070 C.2    30  THR30       0.2618
     13  O         67.8660   29.7390  201.5250 O.2    30  THR30      -0.2717
     14  CB        69.2750   32.2810  202.1610 C.3    30  THR30       0.1784
     15  OG1       69.8560   33.3950  201.4480 O.3    30  THR30      -0.2211
     16  CG2       70.2210   31.1160  201.9580 C.3    30  THR30       0.0376
     17  N         66.0950   30.6170  202.5520 N.am   31  ASP31      -0.1959
     18  CA        65.6320   29.2470  202.7820 C.3    31  ASP31       0.1840
     19  C         64.5450   28.8060  201.8200 C.2    31  ASP31       0.2622
     20  O         64.1630   27.6380  201.8450 O.2    31  ASP31      -0.2715
     21  CB        65.1590   29.0530  204.2180 C.3    31  ASP31       0.1450
     22  CG        66.2330   29.2890  205.2720 C.2    31  ASP31       0.3671
     23  OD1       67.3950   28.8440  205.1180 O.co2  31  ASP31      -0.2456
     24  OD2       65.8310   29.9540  206.2610 O.co2  31  ASP31      -0.2456
     25  N         63.9700   29.7420  201.0820 N.am   32  TYR32      -0.1960
     26  CA        62.8730   29.4710  200.1670 C.3    32  TYR32       0.1771
     27  C         63.1640   29.8640  198.7090 C.2    32  TYR32       0.2619
     28  O         63.5620   30.9690  198.3420 O.2    32  TYR32      -0.2715
     29  CB        61.6230   30.2210  200.6560 C.3    32  TYR32       0.0574
     30  CG        61.0580   29.8110  201.9950 C.ar   32  TYR32      -0.0198
     31  CD1       60.1740   28.7510  202.1210 C.ar   32  TYR32      -0.0009
     32  CD2       61.4240   30.4750  203.1670 C.ar   32  TYR32      -0.0009
     33  CE1       59.6490   28.3750  203.3370 C.ar   32  TYR32       0.0417
     34  CE2       60.9150   30.1020  204.3950 C.ar   32  TYR32       0.0417
     35  CZ        60.0240   29.0630  204.4830 C.ar   32  TYR32       0.1957
     36  OH        59.5100   28.6830  205.7040 O.3    32  TYR32      -0.2866
     37  N         62.8520   28.9470  197.8080 N.am   33  GLU33      -0.1977
     38  CA        62.7710   29.1760  196.3790 C.3    33  GLU33       0.1602
     39  C         61.7570   30.2510  196.0100 C.2    33  GLU33       0.2287
     40  O         60.6840   30.3820  196.5840 O.2    33  GLU33      -0.2864
     41  CB        62.2820   27.9160  195.6560 C.3    33  GLU33       0.0415
     42  CG        63.2530   26.7710  195.5660 C.3    33  GLU33       0.1163
     43  CD        62.6370   25.4440  195.1880 C.2    33  GLU33       0.3649
     44  OE1       61.4320   25.4190  194.8510 O.co2  33  GLU33      -0.2457
     45  OE2       63.3560   24.4020  195.2070 O.co2  33  GLU33      -0.2457
     46  N         59.5450   31.4270  192.7400 N.3    35  HIS35      -0.1241
     47  CA        59.0340   31.0290  191.4580 C.3    35  HIS35       0.1621
     48  C         58.2880   32.1470  190.7430 C.2    35  HIS35       0.2264
     49  O         57.5970   32.9880  191.2840 O.2    35  HIS35      -0.2867
     50  CB        58.1000   29.8210  191.4950 C.3    35  HIS35       0.0745
     51  CG        58.8600   28.5750  191.8140 C.ar   35  HIS35       0.0817
     52  ND1       59.6930   28.5210  192.9240 N.ar   35  HIS35      -0.2268
     53  CD2       58.9550   27.3650  191.2590 C.ar   35  HIS35       0.1154
     54  CE1       60.2460   27.3180  193.0070 C.ar   35  HIS35       0.1986
     55  NE2       59.8230   26.5930  192.0000 N.ar   35  HIS35      -0.2212
     56  N         62.1110   29.1890  188.4220 N.3    50  GLY50      -0.1210
     57  CA        62.3120   29.4890  189.8160 C.3    50  GLY50       0.1956
     58  C         63.7640   29.4240  190.2720 C.2    50  GLY50       0.2612
     59  O         64.5840   28.6980  189.7110 O.2    50  GLY50      -0.2717
     60  N         64.0300   30.1630  191.3570 N.am   51  ILE51      -0.1965
     61  CA        65.4070   30.1260  191.8790 C.3    51  ILE51       0.1727
     62  C         65.4640   29.9630  193.3900 C.2    51  ILE51       0.2616
     63  O         64.6090   30.3800  194.1710 O.2    51  ILE51      -0.2715
     64  CB        66.1080   31.4090  191.4090 C.3    51  ILE51       0.0290
     65  CG1       67.6030   31.4170  191.7110 C.3    51  ILE51       0.0022
     66  CG2       65.3870   32.5970  192.0280 C.3    51  ILE51       0.0023
     67  CD1       68.3280   32.5730  191.0230 C.3    51  ILE51       0.0001
     68  N         66.5290   29.3070  193.8300 N.am   52  HIS52      -0.1973
     69  CA        66.8050   29.1010  195.2540 C.3    52  HIS52       0.1656
     70  C         67.8810   30.1270  195.5840 C.2    52  HIS52       0.2291
     71  O         69.0220   29.9160  195.1920 O.2    52  HIS52      -0.2864
     72  CB        67.4040   27.7330  195.5380 C.3    52  HIS52       0.0771
     73  CG        67.3600   27.4220  197.0050 C.ar   52  HIS52       0.0820
     74  ND1       68.0450   28.1670  197.9550 N.ar   52  HIS52      -0.2267
     75  CD2       66.6720   26.4520  197.6690 C.ar   52  HIS52       0.1154
     76  CE1       67.7810   27.6630  199.1390 C.ar   52  HIS52       0.1986
     77  NE2       66.9410   26.6470  199.0020 N.ar   52  HIS52      -0.2212
     78  N         71.1900   28.1860  197.5410 N.3    55  SER55      -0.1217
     79  CA        72.1170   27.5050  196.6620 C.3    55  SER55       0.1889
     80  C         72.2890   28.1370  195.2990 C.2    55  SER55       0.2288
     81  O         73.2040   27.7010  194.5930 O.2    55  SER55      -0.2866
     82  CB        71.6610   26.0590  196.3960 C.3    55  SER55       0.2089
     83  OG        70.4810   26.1280  195.6150 O.3    55  SER55      -0.2183
     84  N         70.5760   27.6480  192.6690 N.3    57  GLY57      -0.1210
     85  CA        69.9730   26.7360  191.7470 C.3    57  GLY57       0.1956
     86  C         68.7400   27.3380  191.0930 C.2    57  GLY57       0.2613
     87  O         67.9690   28.0960  191.6880 O.2    57  GLY57      -0.2717
     88  N         68.5860   26.9940  189.8150 N.am   58  THR58      -0.1938
     89  CA        67.4670   27.4820  189.0290 C.3    58  THR58       0.2028
     90  C         66.8930   26.3180  188.2500 C.2    58  THR58       0.2642
     91  O         67.5890   25.3590  188.0000 O.2    58  THR58      -0.2714
     92  CB        67.9220   28.5130  187.9920 C.3    58  THR58       0.1808
     93  OG1       68.9000   27.8420  187.2000 O.3    58  THR58      -0.2208
     94  CG2       68.4360   29.8090  188.5460 C.3    58  THR58       0.0379
     95  N         65.6400   26.3720  187.9270 N.am   59  ALA59      -0.1977
     96  CA        64.9310   25.4020  187.1040 C.3    59  ALA59       0.1597
     97  C         64.0530   26.2530  186.1730 C.2    59  ALA59       0.2287
     98  O         63.7770   27.4330  186.4490 O.2    59  ALA59      -0.2864
     99  CB        64.1910   24.3920  187.9380 C.3    59  ALA59       0.0319
    100  N         56.0980   32.2780  196.5180 N.3    98  ARG98      -0.1231
    101  CA        56.9630   31.4170  197.3400 C.3    98  ARG98       0.1694
    102  C         56.2750   30.0720  197.4170 C.2    98  ARG98       0.2592
    103  O         56.7540   29.1170  198.0210 O.2    98  ARG98      -0.2718
    104  CB        57.2600   32.0350  198.6810 C.3    98  ARG98       0.0321
    105  CG        58.4730   31.4630  199.3920 C.3    98  ARG98       0.0489
    106  CD        58.5910   32.0320  200.8040 C.3    98  ARG98       0.2205
    107  NE        57.6460   31.3380  201.6960 N.pl3  98  ARG98      -0.0865
    108  CZ        57.6840   31.4370  203.0360 C.cat  98  ARG98       0.5346
    109  NH1       58.6430   32.1940  203.5670 N.pl3  98  ARG98       0.1354
    110  NH2       56.7820   30.8000  203.7560 N.pl3  98  ARG98       0.1354
    111  N         55.1460   29.9670  196.7070 N.am   99  LYS99      -0.1966
    112  CA        54.3160   28.7850  196.5700 C.3    99  LYS99       0.1728
    113  C         53.1300   28.8730  197.5410 C.2    99  LYS99       0.2616
    114  O         52.0200   28.3610  197.3350 O.2    99  LYS99      -0.2715
    115  CB        55.0640   27.4730  196.7490 C.3    99  LYS99       0.0311
    116  CG        55.9890   27.0790  195.6140 C.3    99  LYS99       0.0038
    117  CD        56.6440   25.7170  195.8050 C.3    99  LYS99       0.0206
    118  CE        58.1380   25.9160  195.5810 C.3    99  LYS99       0.1093
    119  NZ        58.9350   24.6670  195.6410 N.3    99  LYS99      -0.1314
    120  N         53.3720   29.5950  198.6230 N.am  100  ASP100     -0.1957
    121  CA        52.3670   29.9300  199.6200 C.3   100  ASP100      0.1840
    122  C         52.1210   31.4170  199.4780 C.2   100  ASP100      0.2622
    123  O         51.0320   31.7680  199.0240 O.2   100  ASP100     -0.2715
    124  CB        52.7810   29.4920  201.0040 C.3   100  ASP100      0.1450
    125  CG        54.1030   30.0620  201.4890 C.2   100  ASP100      0.3671
    126  OD1       54.8240   30.8230  200.7870 O.co2 100  ASP100     -0.2456
    127  OD2       54.3580   29.7290  202.6780 O.co2 100  ASP100     -0.2456
    128  N         53.1050   32.2790  199.6740 N.am  101  TYR101     -0.1974
    129  CA        52.8390   33.6980  199.4440 C.3   101  TYR101      0.1639
    130  C         52.9280   34.0620  197.9570 C.2   101  TYR101      0.2290
    131  O         53.7210   33.4620  197.2310 O.2   101  TYR101     -0.2864
    132  CB        53.8470   34.5820  200.2040 C.3   101  TYR101      0.0560
    133  CG        53.8810   34.3270  201.6910 C.ar  101  TYR101     -0.0198
    134  CD1       52.6880   34.3220  202.4140 C.ar  101  TYR101     -0.0009
    135  CD2       55.0790   34.1030  202.3690 C.ar  101  TYR101     -0.0009
    136  CE1       52.6840   34.0920  203.7700 C.ar  101  TYR101      0.0417
    137  CE2       55.0820   33.8550  203.7260 C.ar  101  TYR101      0.0417
    138  CZ        53.8800   33.8490  204.4090 C.ar  101  TYR101      0.1957
    139  OH        53.8510   33.6130  205.7740 O.3   101  TYR101     -0.2866
@<TRIPOS>BOND
     1    97    98    2
     2    97    96    1
     3    96    95    1
     4    96    99    1
     5    93    92    1
     6    95    90   am
     7    92    94    1
     8    92    89    1
     9    91    90    2
    10    90    89    1
    11    56    57    1
    12    89    88    1
    13    59    58    2
    14    88    86   am
    15    57    58    1
    16    58    60   am
    17    48    49    2
    18    48    47    1
    19    67    65    1
    20    86    87    2
    21    86    85    1
    22    53    51   ar
    23    53    55   ar
    24    60    61    1
    25    64    65    1
    26    64    61    1
    27    64    66    1
    28    47    50    1
    29    47    46    1
    30    50    51    1
    31    85    84    1
    32    51    52   ar
    33    61    62    1
    34    55    54   ar
    35    52    54   ar
    36    62    68   am
    37    62    63    2
    38    68    69    1
    39    81    80    2
    40    44    43   ar
    41    43    45   ar
    42    43    42    1
    43    71    70    2
    44    69    72    1
    45    69    70    1
    46    80    79    1
    47    72    73    1
    48    42    41    1
    49   118   119    1
    50   118   117    1
    51   116   117    1
    52   116   115    1
    53    83    82    1
    54    41    38    1
    55    39    38    1
    56    39    40    2
    57    38    37    1
    58    82    79    1
    59   100   101    1
    60   112   111    1
    61   112   115    1
    62   112   113    1
    63    79    78    1
    64   111   102   am
    65    73    75   ar
    66    73    74   ar
    67   131   130    2
    68   114   113    2
    69   101   102    1
    70   101   104    1
    71   102   103    2
    72   113   120   am
    73    75    77   ar
    74    37    27   am
    75    74    76   ar
    76   130   129    1
    77    28    27    2
    78   120   121    1
    79   104   105    1
    80    27    26    1
    81    77    76   ar
    82   123   122    2
    83   105   106    1
    84   129   128    1
    85   129   132    1
    86   122   121    1
    87   122   128   am
    88   121   124    1
    89    26    29    1
    90    26    25    1
    91   132   133    1
    92    29    30    1
    93   126   125   ar
    94   106   107    1
    95   124   125    1
    96    25    19   am
    97    15    14    1
    98   125   127   ar
    99    13    12    2
   100    11    12    1
   101    11    10    1
   102    11    14    1
   103   133   135   ar
   104   133   134   ar
   105   107   108    2
   106    19    20    2
   107    19    18    1
   108    12    17   am
   109    16    14    1
   110    30    31   ar
   111    30    32   ar
   112    31    33   ar
   113   135   137   ar
   114   134   136   ar
   115    17    18    1
   116    18    21    1
   117   108   109    1
   118   108   110    1
   119    32    34   ar
   120    33    35   ar
   121   137   138   ar
   122   136   138   ar
   123    21    22    1
   124    34    35   ar
   125   138   139    1
   126    35    36    1
   127    23    22   ar
   128    22    24   ar
   129     4     3    2
   130     3     2    1
   131     1     2    1
   132     2     5    1
   133     9     7   am
   134     5     6    1
   135     7     6    1
   136     7     8    2
