@<TRIPOS>MOLECULE
tmp/1booA00.pdb
 232 232 0 0 0
SMALL
GASTEIGER

@<TRIPOS>ATOM
      1  N        -20.2550   34.3380   49.5070 N.3    18  GLY18      -0.1210
      2  CA       -21.4890   35.0460   49.2120 C.3    18  GLY18       0.1956
      3  C        -21.3130   36.3690   48.4960 C.2    18  GLY18       0.2612
      4  O        -20.1920   36.7630   48.1240 O.2    18  GLY18      -0.2717
      5  N        -22.4290   37.0550   48.2840 N.am   19  ASP19      -0.1959
      6  CA       -22.4040   38.3420   47.6130 C.3    19  ASP19       0.1840
      7  C        -22.1510   39.4260   48.6600 C.2    19  ASP19       0.2622
      8  O        -22.9690   39.6160   49.5700 O.2    19  ASP19      -0.2715
      9  CB       -23.7500   38.5690   46.9160 C.3    19  ASP19       0.1450
     10  CG       -23.8200   39.8880   46.1620 C.2    19  ASP19       0.3671
     11  OD1      -22.7890   40.5950   46.0320 O.co2  19  ASP19      -0.2456
     12  OD2      -24.9330   40.1990   45.6860 O.co2  19  ASP19      -0.2456
     13  N        -21.0570   40.1690   48.5110 N.am   20  SER20      -0.1950
     14  CA       -20.7300   41.2150   49.4800 C.3    20  SER20       0.1924
     15  C        -21.7040   42.3990   49.5240 C.2    20  SER20       0.2314
     16  O        -21.8540   43.0250   50.5700 O.2    20  SER20      -0.2863
     17  CB       -19.2850   41.6830   49.3270 C.3    20  SER20       0.2116
     18  OG       -19.0760   42.2400   48.0600 O.3    20  SER20      -0.2180
     19  N         -9.4070   44.9450   45.8450 N.3    38  SER38      -0.1203
     20  CA        -9.0320   45.1520   44.4520 C.3    38  SER38       0.2005
     21  C        -10.1040   44.3520   43.6860 C.2    38  SER38       0.2461
     22  O        -10.0660   43.1280   43.6600 O.2    38  SER38      -0.2732
     23  CB        -7.6230   44.6460   44.1360 C.3    38  SER38       0.2103
     24  OG        -7.5060   43.2590   44.2840 O.3    38  SER38      -0.2182
     25  N        -11.1370   45.0370   43.1680 N.am   39  PRO39      -0.2718
     26  CA       -12.2490   44.4570   42.4170 C.3    39  PRO39       0.1520
     27  C        -11.9130   43.5310   41.2420 C.2    39  PRO39       0.2440
     28  O        -10.8440   43.6330   40.6480 O.2    39  PRO39      -0.2731
     29  CB       -12.9960   45.7060   41.9560 C.3    39  PRO39       0.0310
     30  CG       -12.8200   46.6170   43.1060 C.3    39  PRO39       0.0237
     31  CD       -11.3400   46.4850   43.3280 C.3    39  PRO39       0.0939
     32  N        -12.8280   42.6020   40.9100 N.am   40  PRO40      -0.2727
     33  CA       -12.6700   41.6560   39.8200 C.3    40  PRO40       0.1402
     34  C        -12.9320   42.3890   38.4820 C.2    40  PRO40       0.2269
     35  O        -14.0040   42.9520   38.2810 O.2    40  PRO40      -0.2865
     36  CB       -13.7830   40.6700   40.1130 C.3    40  PRO40       0.0296
     37  CG       -14.8660   41.5750   40.5320 C.3    40  PRO40       0.0237
     38  CD       -14.1380   42.3900   41.5510 C.3    40  PRO40       0.0939
     39  N        -19.1340   44.0510   34.1690 N.3    45  ARG45      -0.1231
     40  CA       -19.6090   43.3240   35.3640 C.3    45  ARG45       0.1694
     41  C        -21.1440   43.4940   35.4570 C.2    45  ARG45       0.2591
     42  O        -21.7160   44.4210   34.8670 O.2    45  ARG45      -0.2718
     43  CB       -18.9430   43.8750   36.6260 C.3    45  ARG45       0.0321
     44  CG       -18.7820   42.8730   37.7490 C.3    45  ARG45       0.0489
     45  CD       -17.3960   42.2510   37.7650 C.3    45  ARG45       0.2205
     46  NE       -17.3940   40.8750   37.2820 N.pl3  45  ARG45      -0.0865
     47  CZ       -16.9190   40.4500   36.1270 C.cat  45  ARG45       0.5346
     48  NH1      -16.2030   41.2400   35.3420 N.pl3  45  ARG45       0.1354
     49  NH2      -17.1760   39.2030   35.7150 N.pl3  45  ARG45       0.1354
     50  N        -21.7240   42.5690   36.2150 N.am   46  LYS46      -0.1980
     51  CA       -23.1880   42.4330   36.4750 C.3    46  LYS46       0.1596
     52  C        -23.9440   43.7570   36.2500 C.2    46  LYS46       0.2287
     53  O        -23.9170   44.6600   37.1010 O.2    46  LYS46      -0.2864
     54  CB       -23.4220   41.9820   37.9200 C.3    46  LYS46       0.0298
     55  CG       -22.8100   40.6200   38.2110 C.3    46  LYS46       0.0038
     56  CD       -23.1280   40.1670   39.6260 C.3    46  LYS46       0.0206
     57  CE       -22.2530   39.0090   40.0510 C.3    46  LYS46       0.1093
     58  NZ       -20.8370   39.4210   40.2550 N.3    46  LYS46      -0.1314
     59  N        -22.0340   49.2160   38.6910 N.3    60  TRP60      -0.1241
     60  CA       -21.9390   47.9950   39.4790 C.3    60  TRP60       0.1605
     61  C        -21.1280   48.2580   40.7360 C.2    60  TRP60       0.2264
     62  O        -21.5910   48.0110   41.8480 O.2    60  TRP60      -0.2867
     63  CB       -21.2530   46.9120   38.6420 C.3    60  TRP60       0.0550
     64  CG       -20.8520   45.6940   39.4000 C.ar   60  TRP60       0.0003
     65  CD1      -21.6470   44.6460   39.7390 C.ar   60  TRP60       0.0946
     66  CD2      -19.5400   45.3750   39.8790 C.ar   60  TRP60       0.0152
     67  NE1      -20.9170   43.6930   40.3930 N.ar   60  TRP60      -0.2442
     68  CE2      -19.6200   44.1110   40.4890 C.ar   60  TRP60       0.0810
     69  CE3      -18.3110   46.0360   39.8500 C.ar   60  TRP60       0.0012
     70  CZ2      -18.5050   43.4860   41.0610 C.ar   60  TRP60       0.0191
     71  CZ3      -17.2100   45.4150   40.4180 C.ar   60  TRP60       0.0001
     72  CH2      -17.3160   44.1520   41.0160 C.ar   60  TRP60       0.0015
     73  N        -21.5280   49.0520   45.6850 N.3    64  PHE64      -0.1241
     74  CA       -20.7540   48.6210   46.8240 C.3    64  PHE64       0.1605
     75  C        -20.2090   49.8470   47.5160 C.2    64  PHE64       0.2264
     76  O        -20.2760   49.9530   48.7350 O.2    64  PHE64      -0.2867
     77  CB       -19.6270   47.7040   46.3750 C.3    64  PHE64       0.0534
     78  CG       -20.1030   46.4430   45.7070 C.ar   64  PHE64      -0.0203
     79  CD1      -20.3920   46.4320   44.3530 C.ar   64  PHE64      -0.0042
     80  CD2      -20.2200   45.2620   46.4220 C.ar   64  PHE64      -0.0042
     81  CE1      -20.7870   45.2560   43.7050 C.ar   64  PHE64      -0.0003
     82  CE2      -20.6080   44.0850   45.7940 C.ar   64  PHE64      -0.0003
     83  CZ       -20.8930   44.0810   44.4220 C.ar   64  PHE64      -0.0000
     84  N         -5.3670   31.3770   42.9740 N.3   193  HIS193     -0.1241
     85  CA        -6.1430   32.5100   42.4610 C.3   193  HIS193      0.1621
     86  C         -5.4520   33.1840   41.2640 C.2   193  HIS193      0.2264
     87  O         -4.2890   33.6070   41.3660 O.2   193  HIS193     -0.2867
     88  CB        -6.4230   33.5510   43.5540 C.3   193  HIS193      0.0745
     89  CG        -7.4710   34.5490   43.1660 C.ar  193  HIS193      0.0817
     90  ND1       -7.2880   35.4510   42.1420 N.ar  193  HIS193     -0.2268
     91  CD2       -8.7530   34.7060   43.5840 C.ar  193  HIS193      0.1154
     92  CE1       -8.4140   36.1080   41.9310 C.ar  193  HIS193      0.1986
     93  NE2       -9.3180   35.6750   42.7930 N.ar  193  HIS193     -0.2212
     94  N         -5.7150   36.1220   39.9370 N.3   195  ALA195     -0.1231
     95  CA        -5.2550   37.4820   40.1440 C.3   195  ALA195      0.1694
     96  C         -5.3090   37.9120   41.6120 C.2   195  ALA195      0.2592
     97  O         -6.3640   38.3210   42.0930 O.2   195  ALA195     -0.2718
     98  CB        -6.0770   38.4150   39.3010 C.3   195  ALA195      0.0304
     99  N         -4.1840   37.7970   42.3180 N.am  196  ARG196     -0.1966
    100  CA        -4.0930   38.1600   43.7300 C.3   196  ARG196      0.1729
    101  C         -2.9190   39.1180   43.9040 C.2   196  ARG196      0.2616
    102  O         -1.9740   39.0840   43.1040 O.2   196  ARG196     -0.2715
    103  CB        -3.8760   36.9040   44.5760 C.3   196  ARG196      0.0348
    104  CG        -2.6250   36.1060   44.2150 C.3   196  ARG196      0.0492
    105  CD        -2.5110   34.8100   45.0440 C.3   196  ARG196      0.2205
    106  NE        -1.2070   34.1540   44.8890 N.pl3 196  ARG196     -0.0865
    107  CZ        -0.7180   33.7000   43.7340 C.cat 196  ARG196      0.5346
    108  NH1       -1.4190   33.8030   42.6040 N.pl3 196  ARG196      0.1354
    109  NH2        0.5080   33.2060   43.6960 N.pl3 196  ARG196      0.1354
    110  N         -2.9610   39.9640   44.9390 N.am  197  PHE197     -0.1974
    111  CA        -1.8890   40.9290   45.1620 C.3   197  PHE197      0.1639
    112  C         -0.9130   40.5260   46.2650 C.2   197  PHE197      0.2290
    113  O         -1.2640   39.7430   47.1390 O.2   197  PHE197     -0.2864
    114  CB        -2.4400   42.3710   45.3380 C.3   197  PHE197      0.0560
    115  CG        -3.4720   42.5480   46.4440 C.ar  197  PHE197     -0.0200
    116  CD1       -3.3680   41.8900   47.6560 C.ar  197  PHE197     -0.0042
    117  CD2       -4.5380   43.4090   46.2590 C.ar  197  PHE197     -0.0042
    118  CE1       -4.3300   42.0960   48.6630 C.ar  197  PHE197     -0.0003
    119  CE2       -5.4930   43.6120   47.2640 C.ar  197  PHE197     -0.0003
    120  CZ        -5.3900   42.9560   48.4610 C.ar  197  PHE197     -0.0000
    121  N        -12.5710   43.0210   53.6220 N.3   218  ASP218     -0.1225
    122  CA       -12.1790   42.9000   52.2030 C.3   218  ASP218      0.1805
    123  C        -13.3870   42.3290   51.4600 C.2   218  ASP218      0.2598
    124  O        -13.7100   41.1600   51.6000 O.2   218  ASP218     -0.2718
    125  CB       -10.9590   41.9980   52.0550 C.3   218  ASP218      0.1424
    126  CG       -10.4460   41.9360   50.6230 C.2   218  ASP218      0.3668
    127  OD1      -11.2740   42.0070   49.6780 O.co2 218  ASP218     -0.2456
    128  OD2       -9.2110   41.8020   50.4410 O.co2 218  ASP218     -0.2456
    129  N        -14.0600   43.1520   50.6750 N.am  219  ILE219     -0.1966
    130  CA       -15.2720   42.7080   49.9870 C.3   219  ILE219      0.1727
    131  C        -15.1700   41.8110   48.7320 C.2   219  ILE219      0.2616
    132  O        -16.1980   41.4400   48.1500 O.2   219  ILE219     -0.2715
    133  CB       -16.2060   43.8970   49.7020 C.3   219  ILE219      0.0290
    134  CG1      -15.4320   45.0170   49.0110 C.3   219  ILE219      0.0022
    135  CG2      -16.8180   44.4080   51.0020 C.3   219  ILE219      0.0023
    136  CD1      -16.3420   46.1200   48.5020 C.3   219  ILE219      0.0001
    137  N        -13.9430   41.5130   48.2970 N.am  220  PHE220     -0.1960
    138  CA       -13.6830   40.6400   47.1440 C.3   220  PHE220      0.1771
    139  C        -12.4560   39.8230   47.5660 C.2   220  PHE220      0.2620
    140  O        -11.4170   39.8640   46.9250 O.2   220  PHE220     -0.2715
    141  CB       -13.3590   41.4550   45.8750 C.3   220  PHE220      0.0574
    142  CG       -14.4600   42.3980   45.4480 C.ar  220  PHE220     -0.0200
    143  CD1      -15.7370   41.9420   45.2320 C.ar  220  PHE220     -0.0042
    144  CD2      -14.2110   43.7450   45.2820 C.ar  220  PHE220     -0.0042
    145  CE1      -16.7470   42.8070   44.8610 C.ar  220  PHE220     -0.0003
    146  CE2      -15.2240   44.6110   44.9100 C.ar  220  PHE220     -0.0003
    147  CZ       -16.4940   44.1370   44.7010 C.ar  220  PHE220     -0.0000
    148  N        -12.6080   39.0710   48.6460 N.am  221  GLY221     -0.1940
    149  CA       -11.5280   38.2970   49.2180 C.3   221  GLY221      0.2014
    150  C        -10.5250   37.5880   48.3570 C.2   221  GLY221      0.2639
    151  O         -9.3240   37.7290   48.5770 O.2   221  GLY221     -0.2714
    152  N        -10.9950   36.7810   47.4150 N.am  222  GLY222     -0.1939
    153  CA       -10.0840   36.0390   46.5590 C.3   222  GLY222      0.2014
    154  C         -9.3190   35.0480   47.4080 C.2   222  GLY222      0.2640
    155  O         -9.9270   34.2450   48.1070 O.2   222  GLY222     -0.2714
    156  N         -7.9980   35.1360   47.3980 N.am  223  SER223     -0.1935
    157  CA        -7.1900   34.2290   48.1940 C.3   223  SER223      0.2055
    158  C         -7.0350   34.6820   49.6620 C.2   223  SER223      0.2643
    159  O         -6.3560   34.0390   50.4570 O.2   223  SER223     -0.2714
    160  CB        -5.8360   33.9880   47.5250 C.3   223  SER223      0.2130
    161  OG        -5.1210   35.1900   47.2830 O.3   223  SER223     -0.2179
    162  N         -7.6960   35.7860   50.0110 N.am  224  ASN224     -0.1957
    163  CA        -7.6930   36.3480   51.3660 C.3   224  ASN224      0.1819
    164  C         -6.3580   36.8080   51.8920 C.2   224  ASN224      0.2622
    165  O         -6.0770   36.6190   53.0740 O.2   224  ASN224     -0.2715
    166  CB        -8.2960   35.3680   52.3620 C.3   224  ASN224      0.1195
    167  CG        -8.7970   36.0460   53.6190 C.2   224  ASN224      0.2630
    168  OD1       -9.2040   37.2160   53.6150 O.2   224  ASN224     -0.2716
    169  ND2       -8.7930   35.3080   54.7030 N.am  224  ASN224     -0.0877
    170  N         -5.5370   37.4120   51.0350 N.am  225  THR225     -0.1937
    171  CA        -4.2430   37.9320   51.4610 C.3   225  THR225      0.2028
    172  C         -4.4620   38.9380   52.5990 C.2   225  THR225      0.2642
    173  O         -3.7080   38.9760   53.5870 O.2   225  THR225     -0.2714
    174  CB        -3.5560   38.6600   50.3190 C.3   225  THR225      0.1808
    175  OG1       -3.3680   37.7460   49.2270 O.3   225  THR225     -0.2208
    176  CG2       -2.2270   39.1920   50.7620 C.3   225  THR225      0.0379
    177  N         -5.5210   39.7340   52.4630 N.am  226  THR226     -0.1950
    178  CA        -5.8620   40.7500   53.4470 C.3   226  THR226      0.1897
    179  C         -6.0070   40.1150   54.8050 C.2   226  THR226      0.2313
    180  O         -5.1420   40.2750   55.6440 O.2   226  THR226     -0.2863
    181  CB        -7.1530   41.5080   53.0650 C.3   226  THR226      0.1794
    182  OG1       -7.1210   41.8240   51.6630 O.3   226  THR226     -0.2208
    183  CG2       -7.2500   42.8040   53.8610 C.3   226  THR226      0.0378
    184  N        -15.3360   38.6240   52.2760 N.3   240  PHE240     -0.1227
    185  CA       -16.4570   38.0370   51.5580 C.3   240  PHE240      0.1736
    186  C        -15.9130   37.6690   50.1880 C.2   240  PHE240      0.2595
    187  O        -15.1040   38.4260   49.6160 O.2   240  PHE240     -0.2718
    188  CB       -17.5780   39.0480   51.3830 C.3   240  PHE240      0.0547
    189  CG       -18.0020   39.7120   52.6530 C.ar  240  PHE240     -0.0202
    190  CD1      -18.2800   38.9680   53.7890 C.ar  240  PHE240     -0.0042
    191  CD2      -18.1610   41.0870   52.7060 C.ar  240  PHE240     -0.0042
    192  CE1      -18.7140   39.5800   54.9510 C.ar  240  PHE240     -0.0003
    193  CE2      -18.5910   41.7030   53.8600 C.ar  240  PHE240     -0.0003
    194  CZ       -18.8700   40.9410   54.9850 C.ar  240  PHE240     -0.0000
    195  N        -16.2820   36.4880   49.6960 N.am  241  GLU241     -0.1965
    196  CA       -15.8550   36.0280   48.3670 C.3   241  GLU241      0.1733
    197  C        -16.9860   35.1860   47.8260 C.2   241  GLU241      0.2616
    198  O        -17.6340   34.4700   48.5830 O.2   241  GLU241     -0.2715
    199  CB       -14.5900   35.2020   48.4510 C.3   241  GLU241      0.0429
    200  CG       -14.2630   34.4090   47.2120 C.3   241  GLU241      0.1163
    201  CD       -14.1180   35.2670   45.9770 C.2   241  GLU241      0.3649
    202  OE1      -13.2960   36.1960   45.9660 O.co2 241  GLU241     -0.2457
    203  OE2      -14.8310   35.0030   44.9950 O.co2 241  GLU241     -0.2457
    204  N        -17.2480   35.2990   46.5320 N.am  242  MET242     -0.1963
    205  CA       -18.3350   34.5560   45.9200 C.3   242  MET242      0.1736
    206  C        -18.0460   33.0900   45.5770 C.2   242  MET242      0.2616
    207  O        -18.9240   32.2280   45.7310 O.2   242  MET242     -0.2715
    208  CB       -18.8090   35.2970   44.6780 C.3   242  MET242      0.0427
    209  CG       -20.2990   35.3940   44.5890 C.3   242  MET242      0.0599
    210  SD       -20.7760   36.6920   43.4810 S.3   242  MET242     -0.1393
    211  CE       -22.3150   36.0130   42.8760 C.3   242  MET242      0.0692
    212  N        -16.8270   32.8140   45.1130 N.am  243  LYS243     -0.1977
    213  CA       -16.4260   31.4620   44.7230 C.3   243  LYS243      0.1596
    214  C        -15.8500   30.6230   45.8700 C.2   243  LYS243      0.2287
    215  O        -14.8260   30.9790   46.4840 O.2   243  LYS243     -0.2864
    216  CB       -15.4210   31.5010   43.5750 C.3   243  LYS243      0.0298
    217  CG       -15.9040   32.2070   42.3530 C.3   243  LYS243      0.0038
    218  CD       -14.9140   32.0560   41.2240 C.3   243  LYS243      0.0206
    219  CE       -15.0800   30.7110   40.5860 C.3   243  LYS243      0.1093
    220  NZ       -14.0910   30.4550   39.4960 N.3   243  LYS243     -0.1314
    221  N        -12.0640   29.5410   45.9260 N.3   246  TYR246     -0.1241
    222  CA       -11.1590   30.5690   46.3870 C.3   246  TYR246      0.1605
    223  C        -11.1180   30.5910   47.9000 C.2   246  TYR246      0.2264
    224  O        -10.0390   30.5680   48.4920 O.2   246  TYR246     -0.2867
    225  CB       -11.5940   31.8960   45.8110 C.3   246  TYR246      0.0534
    226  CG       -11.3630   32.0200   44.3200 C.ar  246  TYR246     -0.0201
    227  CD1      -10.5140   31.1570   43.6510 C.ar  246  TYR246     -0.0009
    228  CD2      -11.9670   33.0410   43.5870 C.ar  246  TYR246     -0.0009
    229  CE1      -10.2580   31.3060   42.2750 C.ar  246  TYR246      0.0417
    230  CE2      -11.7130   33.2080   42.2090 C.ar  246  TYR246      0.0417
    231  CZ       -10.8540   32.3340   41.5620 C.ar  246  TYR246      0.1957
    232  OH       -10.5280   32.5280   40.2350 O.3   246  TYR246     -0.2866
@<TRIPOS>BOND
     1    39    40    1
     2    42    41    2
     3    48    47    1
     4    40    41    1
     5    40    43    1
     6    41    50   am
     7    49    47    1
     8    47    46    2
     9    50    51    1
    10    52    51    1
    11    52    53    2
    12    51    54    1
    13    43    44    1
    14    46    45    1
    15    44    45    1
    16    54    55    1
    17    55    56    1
    18    35    34    2
    19    34    33    1
    20    63    64    1
    21    63    60    1
    22    59    60    1
    23    98    95    1
    24    64    65   ar
    25    64    66   ar
    26    60    61    1
    27   220   219    1
    28    56    57    1
    29    65    67   ar
    30    33    36    1
    31    33    32    1
    32    69    66   ar
    33    69    71   ar
    34    66    68   ar
    35    94    95    1
    36    57    58    1
    37    36    37    1
    38    95    96    1
    39   232   231    1
    40    67    68   ar
    41    71    72   ar
    42    68    70   ar
    43    37    38    1
    44   219   218    1
    45    28    27    2
    46    61    62    2
    47    32    27   am
    48    32    38    1
    49    72    70   ar
    50   218   217    1
    51    27    26    1
    52    86    87    2
    53    86    85    1
    54   231   230   ar
    55   231   229   ar
    56    96    97    2
    57    96    99   am
    58    92    90   ar
    59    92    93   ar
    60    29    26    1
    61    29    30    1
    62    90    89   ar
    63   230   228   ar
    64   229   227   ar
    65    99   100    1
    66   217   216    1
    67    26    25    1
    68    85    84    1
    69    85    88    1
    70   108   107    1
    71    93    91   ar
    72   211   210    1
    73   102   101    2
    74    30    31    1
    75    89    88    1
    76    89    91   ar
    77    25    31    1
    78    25    21   am
    79   210   209    1
    80   216   213    1
    81   228   226   ar
    82   227   226   ar
    83    22    21    2
    84    21    20    1
    85   109   107    1
    86    81    79   ar
    87    81    83   ar
    88   100   101    1
    89   100   103    1
    90   107   106    2
    91   101   110   am
    92    23    24    1
    93    23    20    1
    94   104   103    1
    95   104   105    1
    96   226   225    1
    97    79    78   ar
    98    83    82   ar
    99    20    19    1
   100   209   208    1
   101   208   205    1
   102   147   145   ar
   103   147   146   ar
   104   213   212    1
   105   213   214    1
   106   145   143   ar
   107   106   105    1
   108   146   144   ar
   109   110   111    1
   110   203   201   ar
   111   212   206   am
   112   111   114    1
   113   111   112    1
   114   143   142   ar
   115   144   142   ar
   116   114   115    1
   117   142   141    1
   118   206   207    2
   119   206   205    1
   120    73    74    1
   121    12    10   ar
   122    78    77    1
   123    78    80   ar
   124    82    80   ar
   125   225   222    1
   126   214   215    2
   127   141   138    1
   128   205   204    1
   129   221   222    1
   130   202   201   ar
   131   201   200    1
   132    11    10   ar
   133    10     9    1
   134   117   115   ar
   135   117   119   ar
   136   112   113    2
   137    77    74    1
   138   222   223    1
   139   115   116   ar
   140   204   197   am
   141   153   154    1
   142   153   152    1
   143    74    75    1
   144     9     6    1
   145   140   139    2
   146   138   139    1
   147   138   137    1
   148   200   199    1
   149   119   120   ar
   150   161   160    1
   151   156   154   am
   152   156   157    1
   153   154   155    2
   154   152   150   am
   155    75    76    2
   156   160   157    1
   157   139   148   am
   158     6     5    1
   159     6     7    1
   160   116   118   ar
   161   197   196    1
   162   197   198    2
   163   223   224    2
   164    18    17    1
   165     4     3    2
   166   132   131    2
   167   157   158    1
   168     5     3   am
   169   137   131   am
   170   150   151    2
   171   150   149    1
   172   196   199    1
   173   196   195    1
   174   120   118   ar
   175     3     2    1
   176   136   134    1
   177    13     7   am
   178    13    14    1
   179   148   149    1
   180     7     8    2
   181   131   130    1
   182   134   133    1
   183     2     1    1
   184   175   174    1
   185    17    14    1
   186    14    15    1
   187    15    16    2
   188   187   186    2
   189   158   162   am
   190   158   159    2
   191   127   126   ar
   192   195   186   am
   193   133   130    1
   194   133   135    1
   195   130   129    1
   196   162   163    1
   197   186   185    1
   198   174   176    1
   199   174   171    1
   200   128   126   ar
   201   126   125    1
   202   129   123   am
   203   170   171    1
   204   170   164   am
   205   163   164    1
   206   163   166    1
   207   188   185    1
   208   188   189    1
   209   123   124    2
   210   123   122    1
   211   171   172    1
   212   185   184    1
   213   182   181    1
   214   164   165    2
   215   125   122    1
   216   122   121    1
   217   166   167    1
   218   177   172   am
   219   177   178    1
   220   172   173    2
   221   189   191   ar
   222   189   190   ar
   223   191   193   ar
   224   181   178    1
   225   181   183    1
   226   178   179    1
   227   168   167    2
   228   167   169   am
   229   190   192   ar
   230   193   194   ar
   231   179   180    2
   232   192   194   ar
