@<TRIPOS>MOLECULE
tmp/1botA00.pdb
 100 98 0 0 0
SMALL
GASTEIGER

@<TRIPOS>ATOM
      1  N          1.1380   60.9710   87.5590 N.3    89  LYS89      -0.1245
      2  CA         1.0290   61.4940   86.2180 C.3    89  LYS89       0.1561
      3  C          1.3620   62.9320   86.1620 C.2    89  LYS89       0.2260
      4  O          2.1430   63.4080   85.3850 O.2    89  LYS89      -0.2867
      5  CB        -0.3420   61.2720   85.6130 C.3    89  LYS89       0.0271
      6  CG        -0.4470   61.6830   84.1440 C.3    89  LYS89       0.0035
      7  CD        -1.7980   62.3050   83.7810 C.3    89  LYS89       0.0206
      8  CE        -2.7360   61.3820   83.0030 C.3    89  LYS89       0.1093
      9  NZ        -4.1670   61.6900   83.2190 N.3    89  LYS89      -0.1314
     10  N          0.6190   56.3470   86.9360 N.3   159  LEU159     -0.1245
     11  CA         1.2250   55.6520   85.8130 C.3   159  LEU159      0.1561
     12  C          2.1590   54.4920   86.0730 C.2   159  LEU159      0.2260
     13  O          2.8800   54.4150   87.0870 O.2   159  LEU159     -0.2867
     14  CB         1.9800   56.6070   84.9170 C.3   159  LEU159      0.0270
     15  CG         1.0170   57.1660   83.9100 C.3   159  LEU159      0.0019
     16  CD1        1.7010   58.2830   83.1590 C.3   159  LEU159      0.0001
     17  CD2        0.6320   56.0300   82.9700 C.3   159  LEU159      0.0001
     18  N          3.9460   58.2440   76.7580 N.3   177  HIS177     -0.1241
     19  CA         3.9060   57.0830   77.6460 C.3   177  HIS177      0.1621
     20  C          3.8090   55.8070   76.7900 C.2   177  HIS177      0.2264
     21  O          2.7570   55.3860   76.2790 O.2   177  HIS177     -0.2867
     22  CB         2.7420   57.2530   78.6610 C.3   177  HIS177      0.0745
     23  CG         2.4540   56.0930   79.5740 C.ar  177  HIS177      0.0817
     24  ND1        3.2360   55.8290   80.6790 N.ar  177  HIS177     -0.2268
     25  CD2        1.4370   55.1970   79.5610 C.ar  177  HIS177      0.1154
     26  CE1        2.7400   54.7670   81.2790 C.ar  177  HIS177      0.1986
     27  NE2        1.6530   54.3580   80.6270 N.ar  177  HIS177     -0.2212
     28  N         -1.8030   42.3310   73.3230 N.3   196  ASP196     -0.1225
     29  CA        -2.4310   43.3910   74.0490 C.3   196  ASP196      0.1805
     30  C         -2.3330   43.1070   75.5410 C.2   196  ASP196      0.2597
     31  O         -1.9660   41.9970   75.9510 O.2   196  ASP196     -0.2718
     32  CB        -3.8920   43.5940   73.5730 C.3   196  ASP196      0.1424
     33  CG        -4.4280   44.9430   73.9500 C.2   196  ASP196      0.3668
     34  OD1       -3.7210   45.9380   73.9570 O.co2 196  ASP196     -0.2456
     35  OD2       -5.7030   44.9160   74.2950 O.co2 196  ASP196     -0.2456
     36  N         -2.6310   44.1460   76.3200 N.am  197  TRP197     -0.1976
     37  CA        -2.7320   44.0480   77.7310 C.3   197  TRP197      0.1640
     38  C         -3.6650   42.9170   78.0410 C.2   197  TRP197      0.2290
     39  O         -4.7310   42.8670   77.4770 O.2   197  TRP197     -0.2864
     40  CB        -3.2010   45.3870   78.1760 C.3   197  TRP197      0.0576
     41  CG        -2.1510   46.3790   77.9630 C.ar  197  TRP197      0.0006
     42  CD1       -2.2870   47.6040   77.4270 C.ar  197  TRP197      0.0946
     43  CD2       -0.8190   46.2740   78.4170 C.ar  197  TRP197      0.0152
     44  NE1       -1.1070   48.3030   77.5170 N.ar  197  TRP197     -0.2442
     45  CE2       -0.1790   47.5020   78.1030 C.ar  197  TRP197      0.0810
     46  CE3       -0.1150   45.2620   79.0750 C.ar  197  TRP197      0.0012
     47  CZ2        1.1540   47.7320   78.4100 C.ar  197  TRP197      0.0191
     48  CZ3        1.2080   45.4690   79.3680 C.ar  197  TRP197      0.0001
     49  CH2        1.8220   46.6870   79.0270 C.ar  197  TRP197      0.0015
     50  N         -6.2450   49.3790   83.8960 N.3   209  ARG209     -0.1231
     51  CA        -5.8290   49.5040   82.5280 C.3   209  ARG209      0.1694
     52  C         -5.2420   50.8900   82.2920 C.2   209  ARG209      0.2591
     53  O         -4.3730   51.1050   81.4630 O.2   209  ARG209     -0.2718
     54  CB        -6.9880   49.2070   81.5810 C.3   209  ARG209      0.0321
     55  CG        -6.6760   48.1290   80.5410 C.3   209  ARG209      0.0489
     56  CD        -7.3330   48.3850   79.1850 C.3   209  ARG209      0.2205
     57  NE        -6.5460   47.8880   78.0500 N.pl3 209  ARG209     -0.0865
     58  CZ        -6.5770   46.6280   77.5780 C.cat 209  ARG209      0.5346
     59  NH1       -7.3530   45.6900   78.1150 N.pl3 209  ARG209      0.1354
     60  NH2       -5.8130   46.2970   76.5290 N.pl3 209  ARG209      0.1354
     61  N         -5.7480   51.8070   83.0700 N.am  210  GLU210     -0.1979
     62  CA        -5.4210   53.1810   83.0510 C.3   210  GLU210      0.1602
     63  C         -3.9670   53.5470   83.2110 C.2   210  GLU210      0.2287
     64  O         -3.5320   54.6130   82.7590 O.2   210  GLU210     -0.2864
     65  CB        -6.2510   53.8430   84.1320 C.3   210  GLU210      0.0415
     66  CG        -7.7470   53.8630   83.7470 C.3   210  GLU210      0.1163
     67  CD        -8.5280   52.6270   84.1060 C.2   210  GLU210      0.3649
     68  OE1       -7.8660   51.8120   84.8870 O.co2 210  GLU210     -0.2457
     69  OE2       -9.6630   52.4110   83.7030 O.co2 210  GLU210     -0.2457
     70  N         -1.3380   51.5600   82.3040 N.3   212  LEU212     -0.1231
     71  CA        -0.4280   50.9700   81.3610 C.3   212  LEU212      0.1678
     72  C         -0.3010   51.8070   80.1350 C.2   212  LEU212      0.2434
     73  O         -1.2260   52.5210   79.8120 O.2   212  LEU212     -0.2733
     74  CB        -0.7750   49.5400   80.9720 C.3   212  LEU212      0.0284
     75  CG        -2.0230   49.0110   81.6690 C.3   212  LEU212      0.0019
     76  CD1       -2.3300   47.5980   81.1750 C.3   212  LEU212      0.0001
     77  CD2       -1.8230   48.9640   83.1760 C.3   212  LEU212      0.0001
     78  N          0.8530   51.7220   79.4990 N.am  213  PRO213     -0.2718
     79  CA         1.1880   52.4680   78.3350 C.3   213  PRO213      0.1535
     80  C          0.8300   51.7710   77.0510 C.2   213  PRO213      0.2598
     81  O          0.4280   50.5980   77.0050 O.2   213  PRO213     -0.2715
     82  CB         2.6860   52.7590   78.4050 C.3   213  PRO213      0.0310
     83  CG         3.2360   51.7790   79.4240 C.3   213  PRO213      0.0237
     84  CD         2.0460   51.1580   80.1390 C.3   213  PRO213      0.0939
     85  N          1.0490   52.5050   75.9790 N.am  214  GLU214     -0.1964
     86  CA         0.7930   51.9670   74.7090 C.3   214  GLU214      0.1733
     87  C          1.9400   51.0780   74.2770 C.2   214  GLU214      0.2616
     88  O          3.0990   51.4950   74.3670 O.2   214  GLU214     -0.2715
     89  CB         0.5490   53.0810   73.7220 C.3   214  GLU214      0.0429
     90  CG         0.6970   52.5960   72.2810 C.3   214  GLU214      0.1163
     91  CD         0.3790   53.6300   71.3140 C.2   214  GLU214      0.3649
     92  OE1        0.4760   54.8300   71.4960 O.co2 214  GLU214     -0.2457
     93  OE2       -0.2040   53.1260   70.1830 O.co2 214  GLU214     -0.2457
     94  N          1.6300   49.8580   73.9220 N.am  215  VAL215     -0.1977
     95  CA         2.6820   48.9820   73.4630 C.3   215  VAL215      0.1596
     96  C          2.9230   49.3250   72.0130 C.2   215  VAL215      0.2287
     97  O          1.9740   49.5790   71.3270 O.2   215  VAL215     -0.2864
     98  CB         2.3300   47.5340   73.7210 C.3   215  VAL215      0.0276
     99  CG1        3.5760   46.6510   73.5420 C.3   215  VAL215      0.0022
    100  CG2        1.8140   47.4220   75.1520 C.3   215  VAL215      0.0022
@<TRIPOS>BOND
     1    93    91   ar
     2    91    92   ar
     3    91    90    1
     4    97    96    2
     5    96    95    1
     6    90    89    1
     7    28    29    1
     8    95    98    1
     9    95    94    1
    10    99    98    1
    11    32    33    1
    12    32    29    1
    13    98   100    1
    14    89    86    1
    15    94    87   am
    16    33    34   ar
    17    33    35   ar
    18    29    30    1
    19    87    88    2
    20    87    86    1
    21    86    85    1
    22    30    31    2
    23    30    36   am
    24    85    80   am
    25    21    20    2
    26    36    37    1
    27    60    58    1
    28    18    19    1
    29    20    19    1
    30    81    80    2
    31    80    79    1
    32    42    44   ar
    33    42    41   ar
    34    39    38    2
    35    44    45   ar
    36    58    57    2
    37    58    59    1
    38    19    22    1
    39    37    38    1
    40    37    40    1
    41    41    40    1
    42    41    43   ar
    43    57    56    1
    44    45    47   ar
    45    45    43   ar
    46    79    82    1
    47    79    78    1
    48    82    83    1
    49    47    49   ar
    50    43    46   ar
    51    22    23    1
    52    49    48   ar
    53    46    48   ar
    54    56    55    1
    55    83    84    1
    56    78    72   am
    57    78    84    1
    58    25    23   ar
    59    25    27   ar
    60    23    24   ar
    61    73    72    2
    62    72    71    1
    63    55    54    1
    64    27    26   ar
    65    24    26   ar
    66    74    71    1
    67    74    75    1
    68    76    75    1
    69    71    70    1
    70    53    52    2
    71    54    51    1
    72    75    77    1
    73    52    51    1
    74    52    61   am
    75    51    50    1
    76    64    63    2
    77    17    15    1
    78     8     9    1
    79     8     7    1
    80    62    61    1
    81    62    63    1
    82    62    65    1
    83    16    15    1
    84    69    67   ar
    85    66    67    1
    86    66    65    1
    87     7     6    1
    88    15    14    1
    89    67    68   ar
    90     6     5    1
    91    14    11    1
    92     4     3    2
    93     5     2    1
    94    11    12    1
    95    11    10    1
    96    12    13    2
    97     3     2    1
    98     2     1    1
