@<TRIPOS>MOLECULE
tmp/1bozA01.pdb
 151 144 0 0 0
SMALL
GASTEIGER

@<TRIPOS>ATOM
      1  N         21.0010   11.8720   -2.9040 N.3     7  ILE7       -0.1231
      2  CA        22.1060   12.0570   -3.8280 C.3     7  ILE7        0.1692
      3  C         23.2260   11.2290   -3.1820 C.2     7  ILE7        0.2592
      4  O         23.3870   11.2730   -1.9630 O.2     7  ILE7       -0.2718
      5  CB        22.4570   13.5370   -4.1670 C.3     7  ILE7        0.0266
      6  CG1       23.4260   13.5940   -5.4040 C.3     7  ILE7        0.0019
      7  CG2       23.0220   14.3120   -2.9390 C.3     7  ILE7        0.0020
      8  CD1       23.4230   14.9970   -6.0750 C.3     7  ILE7        0.0001
      9  N         23.9080   10.4450   -4.0050 N.am    8  VAL8       -0.1966
     10  CA        25.0110    9.5720   -3.6150 C.3     8  VAL8        0.1727
     11  C         25.9060    9.2120   -4.7890 C.2     8  VAL8        0.2612
     12  O         25.4160    9.0820   -5.9350 O.2     8  VAL8       -0.2715
     13  CB        24.4380    8.2110   -3.0700 C.3     8  VAL8        0.0290
     14  CG1       23.6850    7.4590   -4.1800 C.3     8  VAL8        0.0023
     15  CG2       25.5620    7.3300   -2.5190 C.3     8  VAL8        0.0023
     16  N         27.1740    9.0050   -4.5390 N.am    9  ALA9       -0.2031
     17  CA        28.1490    8.5250   -5.5550 C.3     9  ALA9        0.1283
     18  C         28.4990    7.1210   -5.0250 C.3     9  ALA9        0.2036
     19  O         28.8650    7.1540   -3.8340 O.3     9  ALA9       -0.2185
     20  CB        29.4220    9.3360   -5.6920 C.3     9  ALA9        0.0262
     21  N         36.2760    8.5400    4.5370 N.3    21  ASP21      -0.1225
     22  CA        36.6340    9.3180    3.3140 C.3    21  ASP21       0.1805
     23  C         35.9730    8.6650    2.1060 C.2    21  ASP21       0.2597
     24  O         35.4000    7.5900    2.2660 O.2    21  ASP21      -0.2718
     25  CB        38.1330    9.2830    3.2760 C.3    21  ASP21       0.1424
     26  CG        38.8670   10.4230    2.6330 C.2    21  ASP21       0.3668
     27  OD1       38.3480   11.4960    2.2780 O.co2  21  ASP21      -0.2456
     28  OD2       40.0710   10.1190    2.5270 O.co2  21  ASP21      -0.2456
     29  N         36.0480    9.3110    0.9700 N.am   22  LEU22      -0.1979
     30  CA        35.4440    8.6400   -0.2270 C.3    22  LEU22       0.1596
     31  C         36.4370    7.5490   -0.6340 C.2    22  LEU22       0.2287
     32  O         37.6270    7.7710   -0.4240 O.2    22  LEU22      -0.2864
     33  CB        35.2290    9.7290   -1.2760 C.3    22  LEU22       0.0297
     34  CG        34.2190   10.8180   -0.9690 C.3    22  LEU22       0.0022
     35  CD1       34.2550   11.9470   -1.9900 C.3    22  LEU22       0.0001
     36  CD2       32.8230   10.1880   -0.9200 C.3    22  LEU22       0.0001
     37  N         32.5450   15.7920  -10.3200 N.3    30  GLU30      -0.1231
     38  CA        31.4610   15.0070   -9.6770 C.3    30  GLU30       0.1699
     39  C         31.0330   15.8710   -8.5070 C.2    30  GLU30       0.2592
     40  O         29.8660   16.1200   -8.2150 O.2    30  GLU30      -0.2718
     41  CB        31.8540   13.5870   -9.4160 C.3    30  GLU30       0.0402
     42  CG        30.7860   12.5480   -9.0720 C.3    30  GLU30       0.1161
     43  CD        29.8970   12.8970   -7.8960 C.2    30  GLU30       0.3649
     44  OE1       30.5280   13.0380   -6.8170 O.co2  30  GLU30      -0.2457
     45  OE2       28.6950   13.0180   -7.9620 O.co2  30  GLU30      -0.2457
     46  N         31.9670   16.4550   -7.8180 N.am   31  GLY31      -0.1957
     47  CA        31.8220   17.3610   -6.6810 C.3    31  GLY31       0.1869
     48  C         31.1110   18.6370   -7.0610 C.2    31  GLY31       0.2309
     49  O         30.2840   19.0900   -6.2790 O.2    31  GLY31      -0.2863
     50  N         29.0340   18.9570   -9.4680 N.3    33  TYR33      -0.1227
     51  CA        27.6780   18.4090   -9.7610 C.3    33  TYR33       0.1736
     52  C         26.9080   18.3250   -8.4240 C.2    33  TYR33       0.2595
     53  O         25.8160   18.8670   -8.2450 O.2    33  TYR33      -0.2718
     54  CB        27.8500   17.0520  -10.4580 C.3    33  TYR33       0.0548
     55  CG        26.5480   16.2590  -10.5650 C.ar   33  TYR33      -0.0200
     56  CD1       25.6410   16.6590  -11.5630 C.ar   33  TYR33      -0.0009
     57  CD2       26.1970   15.2240   -9.7120 C.ar   33  TYR33      -0.0009
     58  CE1       24.4260   16.0060  -11.7170 C.ar   33  TYR33       0.0417
     59  CE2       24.9760   14.5680   -9.8490 C.ar   33  TYR33       0.0417
     60  CZ        24.1060   14.9580  -10.8450 C.ar   33  TYR33       0.1957
     61  OH        22.8730   14.3760  -11.0660 O.3    33  TYR33      -0.2866
     62  N         27.5120   17.6070   -7.4480 N.am   34  PHE34      -0.1962
     63  CA        26.9520   17.4470   -6.1150 C.3    34  PHE34       0.1771
     64  C         26.5810   18.8270   -5.5610 C.2    34  PHE34       0.2619
     65  O         25.4500   18.9980   -5.0680 O.2    34  PHE34      -0.2715
     66  CB        27.8780   16.6680   -5.1710 C.3    34  PHE34       0.0574
     67  CG        27.4580   16.8370   -3.7300 C.ar   34  PHE34      -0.0200
     68  CD1       26.2930   16.2120   -3.2870 C.ar   34  PHE34      -0.0042
     69  CD2       28.2240   17.6250   -2.8640 C.ar   34  PHE34      -0.0042
     70  CE1       25.8800   16.3330   -1.9570 C.ar   34  PHE34      -0.0003
     71  CE2       27.8040   17.7780   -1.5290 C.ar   34  PHE34      -0.0003
     72  CZ        26.6390   17.1190   -1.0880 C.ar   34  PHE34      -0.0000
     73  N         27.5320   19.7750   -5.6590 N.am   35  GLN35      -0.1977
     74  CA        27.2230   21.1350   -5.1550 C.3    35  GLN35       0.1601
     75  C         26.0860   21.8170   -5.9450 C.2    35  GLN35       0.2287
     76  O         25.2100   22.5440   -5.4040 O.2    35  GLN35      -0.2864
     77  CB        28.4040   22.0940   -5.2350 C.3    35  GLN35       0.0394
     78  CG        29.7370   21.6200   -4.7190 C.3    35  GLN35       0.0908
     79  CD        29.8540   21.5790   -3.2200 C.2    35  GLN35       0.2608
     80  OE1       29.2000   22.2910   -2.4520 O.2    35  GLN35      -0.2717
     81  NE2       30.7670   20.7060   -2.7470 N.am   35  GLN35      -0.0878
     82  N         28.8740   11.6740    8.3450 N.3    56  THR56      -0.1218
     83  CA        28.9590   12.3930    7.0340 C.3    56  THR56       0.1862
     84  C         29.3760   13.8370    7.2590 C.2    56  THR56       0.2287
     85  O         30.2260   14.2940    6.4870 O.2    56  THR56      -0.2866
     86  CB        27.6180   12.3260    6.2170 C.3    56  THR56       0.1770
     87  OG1       27.5670   10.9050    5.9710 O.3    56  THR56      -0.2211
     88  CG2       27.5900   13.2070    4.9770 C.3    56  THR56       0.0375
     89  N         33.0520   14.0280    7.9660 N.3    59  SER59      -0.1202
     90  CA        33.8330   13.6450    6.7780 C.3    59  SER59       0.2020
     91  C         34.0260   14.7780    5.7860 C.2    59  SER59       0.2619
     92  O         34.7900   14.6020    4.8030 O.2    59  SER59      -0.2717
     93  CB        33.1650   12.4610    6.0700 C.3    59  SER59       0.2103
     94  OG        32.2450   12.9410    5.0700 O.3    59  SER59      -0.2182
     95  N         33.3850   15.9030    5.9480 N.am   60  ILE60      -0.1966
     96  CA        33.4960   17.0420    5.0270 C.3    60  ILE60       0.1712
     97  C         34.6440   17.8610    5.6190 C.2    60  ILE60       0.2458
     98  O         34.6650   18.0040    6.8410 O.2    60  ILE60      -0.2730
     99  CB        32.1840   17.8730    4.9060 C.3    60  ILE60       0.0289
    100  CG1       30.9810   16.9850    4.4880 C.3    60  ILE60       0.0022
    101  CG2       32.3550   19.1420    4.0360 C.3    60  ILE60       0.0023
    102  CD1       29.6020   17.7130    4.6410 C.3    60  ILE60       0.0001
    103  N         35.5240   18.2960    4.7470 N.am   61  PRO61      -0.2727
    104  CA        36.6730   19.1190    5.1710 C.3    61  PRO61       0.1402
    105  C         36.0900   20.3300    5.8900 C.2    61  PRO61       0.2269
    106  O         35.1230   20.9430    5.3960 O.2    61  PRO61      -0.2865
    107  CB        37.3840   19.4470    3.8550 C.3    61  PRO61       0.0296
    108  CG        36.9020   18.3810    2.8870 C.3    61  PRO61       0.0237
    109  CD        35.4690   18.0830    3.2830 C.3    61  PRO61       0.0939
    110  N         34.9650   23.5370    4.3510 N.3    64  ASN64      -0.1240
    111  CA        33.7680   23.3680    3.5190 C.3    64  ASN64       0.1653
    112  C         32.5300   23.1620    4.3830 C.2    64  ASN64       0.2266
    113  O         31.5540   22.7010    3.8070 O.2    64  ASN64      -0.2867
    114  CB        33.9120   22.1520    2.5810 C.3    64  ASN64       0.1155
    115  CG        34.9760   22.4730    1.5440 C.2    64  ASN64       0.2627
    116  OD1       34.8680   23.5580    0.9460 O.2    64  ASN64      -0.2716
    117  ND2       35.9190   21.5580    1.3970 N.am   64  ASN64      -0.0877
    118  N         27.9790   23.2920    4.4880 N.3    67  LEU67      -0.1245
    119  CA        27.8250   23.4190    3.0030 C.3    67  LEU67       0.1561
    120  C         27.1340   24.7780    2.7690 C.2    67  LEU67       0.2260
    121  O         26.0070   25.0400    3.2530 O.2    67  LEU67      -0.2867
    122  CB        27.0470   22.2170    2.4810 C.3    67  LEU67       0.0270
    123  CG        27.6780   20.8390    2.5620 C.3    67  LEU67       0.0019
    124  CD1       26.6060   19.8520    2.0500 C.3    67  LEU67       0.0001
    125  CD2       28.9140   20.7140    1.6900 C.3    67  LEU67       0.0001
    126  N         22.1020   13.5810    1.9840 N.3   115  VAL115     -0.1301
    127  CA        23.4530   13.3700    1.4720 C.3   115  VAL115      0.1246
    128  C         24.3110   12.3120    2.1540 C.3   115  VAL115      0.2009
    129  O         25.4750   12.2720    1.7200 O.3   115  VAL115     -0.2188
    130  CB        24.1160   14.7540    1.3280 C.3   115  VAL115      0.0202
    131  CG1       23.1560   15.7500    0.6550 C.3   115  VAL115      0.0016
    132  CG2       24.5970   15.3810    2.6460 C.3   115  VAL115      0.0016
    133  N         20.2550    6.8810    4.2450 N.3   121  TYR121     -0.1241
    134  CA        19.7210    6.5250    2.9140 C.3   121  TYR121      0.1605
    135  C         18.7120    5.3900    3.0240 C.2   121  TYR121      0.2264
    136  O         17.6490    5.4560    2.4280 O.2   121  TYR121     -0.2867
    137  CB        20.8330    6.0420    2.0050 C.3   121  TYR121      0.0534
    138  CG        21.7830    7.0500    1.4680 C.ar  121  TYR121     -0.0201
    139  CD1       21.3100    8.2080    0.8480 C.ar  121  TYR121     -0.0009
    140  CD2       23.1730    6.8290    1.6190 C.ar  121  TYR121     -0.0009
    141  CE1       22.2240    9.1540    0.3420 C.ar  121  TYR121      0.0417
    142  CE2       24.0650    7.7370    1.1020 C.ar  121  TYR121      0.0417
    143  CZ        23.5830    8.8830    0.4370 C.ar  121  TYR121      0.1957
    144  OH        24.4750    9.7630   -0.0740 O.3   121  TYR121     -0.2866
    145  N         25.3690    8.5690   -8.9350 N.3   136  THR136     -0.1218
    146  CA        26.5420    8.6960   -9.7840 C.3   136  THR136      0.1862
    147  C         27.1690    7.2830   -9.7010 C.2   136  THR136      0.2287
    148  O         27.6060    6.9270   -8.5980 O.2   136  THR136     -0.2866
    149  CB        27.6590    9.7230   -9.3880 C.3   136  THR136      0.1770
    150  OG1       27.0030   11.0070   -9.1390 O.3   136  THR136     -0.2211
    151  CG2       28.8210    9.8970  -10.3780 C.3   136  THR136      0.0375
@<TRIPOS>BOND
     1    58    56   ar
     2    58    60   ar
     3    56    55   ar
     4    61    60    1
     5    60    59   ar
     6    55    54    1
     7    55    57   ar
     8    54    51    1
     9   151   149    1
    10    37    38    1
    11    59    57   ar
    12   146   147    1
    13   146   149    1
    14   146   145    1
    15    51    50    1
    16    51    52    1
    17   147   148    2
    18    38    41    1
    19    38    39    1
    20    41    42    1
    21   149   150    1
    22    42    43    1
    23    39    40    2
    24    39    46   am
    25    52    53    2
    26    52    62   am
    27    45    43   ar
    28    43    44   ar
    29    46    47    1
    30    62    63    1
    31    48    47    1
    32    48    49    2
    33    63    64    1
    34    63    66    1
    35     8     6    1
    36    75    76    2
    37    75    74    1
    38    12    11    2
    39    20    17    1
    40    73    64   am
    41    73    74    1
    42    64    65    2
    43    17    18    1
    44    17    16    1
    45     6     5    1
    46    77    74    1
    47    77    78    1
    48    66    67    1
    49    18    19    1
    50    11    16   am
    51    11    10    1
    52    78    79    1
    53    14    13    1
    54     5     2    1
    55     5     7    1
    56     9    10    1
    57     9     3   am
    58     2     3    1
    59     2     1    1
    60    67    68   ar
    61    67    69   ar
    62    10    13    1
    63    68    70   ar
    64    79    81   am
    65    79    80    2
    66     3     4    2
    67    13    15    1
    68    69    71   ar
    69    35    34    1
    70    70    72   ar
    71    71    72   ar
    72    33    34    1
    73    33    30    1
    74    34    36    1
    75    31    32    2
    76    31    30    1
    77    30    29    1
    78   144   143    1
    79   141   143   ar
    80   141   139   ar
    81   143   142   ar
    82   131   130    1
    83   139   138   ar
    84   116   115    2
    85    29    23   am
    86   142   140   ar
    87   130   127    1
    88   130   132    1
    89   117   115   am
    90   138   140   ar
    91   138   137    1
    92   127   126    1
    93   127   128    1
    94   115   114    1
    95   125   123    1
    96   129   128    1
    97   137   134    1
    98   124   123    1
    99    23    24    2
   100    23    22    1
   101    27    26   ar
   102   136   135    2
   103   122   123    1
   104   122   119    1
   105    28    26   ar
   106   114   111    1
   107    26    25    1
   108   120   119    1
   109   120   121    2
   110   108   109    1
   111   108   107    1
   112   134   135    1
   113   134   133    1
   114   119   118    1
   115    25    22    1
   116   109   103    1
   117    22    21    1
   118   111   110    1
   119   111   112    1
   120   113   112    2
   121   107   104    1
   122   101    99    1
   123   100   102    1
   124   100    99    1
   125   103   104    1
   126   103    97   am
   127    92    91    2
   128    99    96    1
   129    88    86    1
   130    96    97    1
   131    96    95    1
   132    94    93    1
   133   104   105    1
   134   106   105    2
   135    97    98    2
   136    91    95   am
   137    91    90    1
   138    87    86    1
   139    93    90    1
   140    86    83    1
   141    85    84    2
   142    90    89    1
   143    83    84    1
   144    83    82    1
