@<TRIPOS>MOLECULE
tmp/1bp4A00.pdb
 134 132 0 0 0
SMALL
GASTEIGER

@<TRIPOS>ATOM
      1  N          0.1190   31.3930  -20.1670 N.3    19  GLN19      -0.1231
      2  CA         0.0990   31.2580  -18.7140 C.3    19  GLN19       0.1698
      3  C          0.3940   29.8360  -18.2580 C.2    19  GLN19       0.2593
      4  O          0.7610   29.6130  -17.1110 O.2    19  GLN19      -0.2718
      5  CB        -1.2480   31.7080  -18.1650 C.3    19  GLN19       0.0381
      6  CG        -2.4020   30.8650  -18.6660 C.3    19  GLN19       0.0905
      7  CD        -3.7320   31.4050  -18.2150 C.2    19  GLN19       0.2608
      8  OE1       -4.1260   32.5180  -18.5730 O.2    19  GLN19      -0.2717
      9  NE2       -4.4230   30.6350  -17.4010 N.am   19  GLN19      -0.0878
     10  N          0.2550   28.8770  -19.1640 N.am   20  GLY20      -0.1942
     11  CA         0.4910   27.4860  -18.8250 C.3    20  GLY20       0.2014
     12  C         -0.6450   26.9360  -17.9780 C.2    20  GLY20       0.2640
     13  O         -1.7980   27.3720  -18.0720 O.2    20  GLY20      -0.2714
     14  N         -0.3220   25.9620  -17.1460 N.am   21  SER21      -0.1935
     15  CA        -1.3080   25.3550  -16.2620 C.3    21  SER21       0.2055
     16  C         -1.3000   26.0360  -14.8970 C.2    21  SER21       0.2643
     17  O         -0.8940   25.4410  -13.9060 O.2    21  SER21      -0.2714
     18  CB        -1.0220   23.8590  -16.1130 C.3    21  SER21       0.2130
     19  OG         0.3610   23.6340  -15.8610 O.3    21  SER21      -0.2179
     20  N         -1.6980   27.3000  -14.8650 N.am   22  CYS22      -0.1953
     21  CA        -1.7600   28.0810  -13.6380 C.3    22  CYS22       0.1843
     22  C         -2.7950   29.1540  -13.8980 C.2    22  CYS22       0.2626
     23  O         -2.7820   29.7760  -14.9610 O.2    22  CYS22      -0.2714
     24  CB        -0.3950   28.7110  -13.3020 C.3    22  CYS22       0.0997
     25  SG        -0.4260   30.1650  -12.1830 S.3    22  CYS22      -0.0797
     26  N         -3.7450   29.2970  -12.9760 N.am   23  GLY23      -0.1954
     27  CA        -4.7920   30.2930  -13.1140 C.3    23  GLY23       0.1869
     28  C         -4.2700   31.6970  -12.9050 C.2    23  GLY23       0.2309
     29  O         -4.7530   32.4260  -12.0370 O.2    23  GLY23      -0.2863
     30  N         -4.3130   33.9900  -15.3150 N.3    25  CYS25      -0.1235
     31  CA        -5.0190   34.8540  -16.2560 C.3    25  CYS25       0.1677
     32  C         -5.2260   36.2870  -15.7720 C.2    25  CYS25       0.2270
     33  O         -4.9830   37.2420  -16.5160 O.2    25  CYS25      -0.2867
     34  CB        -6.3760   34.2360  -16.6190 C.3    25  CYS25       0.0956
     35  SG        -7.4310   33.7060  -15.2000 S.3    25  CYS25      -0.0801
     36  N         -2.2310   30.7660   -8.2920 N.3    63  CYS63      -0.1221
     37  CA        -2.5630   29.9630   -9.4510 C.3    63  CYS63       0.1808
     38  C         -3.9650   29.3700   -9.3970 C.2    63  CYS63       0.2601
     39  O         -4.3550   28.5900  -10.2740 O.2    63  CYS63      -0.2717
     40  CB        -1.5210   28.8700   -9.6590 C.3    63  CYS63       0.0970
     41  SG         0.0590   29.4840  -10.3280 S.3    63  CYS63      -0.0800
     42  N         -4.7240   29.7500   -8.3720 N.am   64  ASN64      -0.1960
     43  CA        -6.0870   29.2600   -8.2080 C.3    64  ASN64       0.1819
     44  C         -7.1060   30.2830   -8.6690 C.2    64  ASN64       0.2622
     45  O         -8.3040   30.0630   -8.5460 O.2    64  ASN64      -0.2715
     46  CB        -6.3600   28.9060   -6.7480 C.3    64  ASN64       0.1195
     47  CG        -5.6320   27.6670   -6.3120 C.2    64  ASN64       0.2630
     48  OD1       -4.4410   27.7040   -6.0330 O.2    64  ASN64      -0.2716
     49  ND2       -6.3450   26.5520   -6.2480 N.am   64  ASN64      -0.0877
     50  N         -6.6280   31.4000   -9.1990 N.am   65  GLY65      -0.1940
     51  CA        -7.5290   32.4310   -9.6630 C.3    65  GLY65       0.2014
     52  C         -7.1810   33.7230   -8.9800 C.2    65  GLY65       0.2639
     53  O         -6.3620   33.7310   -8.0640 O.2    65  GLY65      -0.2714
     54  N         -7.8040   34.8140   -9.4020 N.am   66  GLY66      -0.1954
     55  CA        -7.5070   36.0970   -8.8060 C.3    66  GLY66       0.1869
     56  C         -8.3320   37.1900   -9.4390 C.2    66  GLY66       0.2309
     57  O         -9.1660   36.9200  -10.3070 O.2    66  GLY66      -0.2863
     58  N        -14.6840   31.0440  -20.6980 N.3   136  ALA136     -0.1231
     59  CA       -13.7900   30.2910  -21.5700 C.3   136  ALA136      0.1694
     60  C        -13.9010   28.7830  -21.3990 C.2   136  ALA136      0.2591
     61  O        -13.2090   28.0200  -22.0810 O.2   136  ALA136     -0.2718
     62  CB       -12.3470   30.7370  -21.3280 C.3   136  ALA136      0.0304
     63  N        -14.8070   28.3540  -20.5250 N.am  137  ALA137     -0.1980
     64  CA       -14.9980   26.9330  -20.2470 C.3   137  ALA137      0.1597
     65  C        -15.6280   26.1290  -21.3740 C.2   137  ALA137      0.2287
     66  O        -15.5640   24.9100  -21.3750 O.2   137  ALA137     -0.2864
     67  CB       -15.8050   26.7680  -18.9950 C.3   137  ALA137      0.0319
     68  N        -12.5150   27.0260  -26.5440 N.3   142  GLN142     -0.1231
     69  CA       -11.2580   26.3220  -26.4490 C.3   142  GLN142      0.1698
     70  C        -10.7360   25.8830  -27.7940 C.2   142  GLN142      0.2592
     71  O         -9.5280   25.8030  -28.0000 O.2   142  GLN142     -0.2718
     72  CB       -11.4130   25.1120  -25.5370 C.3   142  GLN142      0.0381
     73  CG       -11.5750   25.5000  -24.0890 C.3   142  GLN142      0.0905
     74  CD       -11.7550   24.3120  -23.1680 C.2   142  GLN142      0.2608
     75  OE1      -11.6210   23.1550  -23.5740 O.2   142  GLN142     -0.2717
     76  NE2      -12.0680   24.5940  -21.9130 N.am  142  GLN142     -0.0878
     77  N        -11.6550   25.5810  -28.6950 N.am  143  LEU143     -0.1980
     78  CA       -11.3120   25.1170  -30.0270 C.3   143  LEU143      0.1596
     79  C        -11.2900   26.2150  -31.0880 C.2   143  LEU143      0.2287
     80  O        -11.1600   25.9210  -32.2820 O.2   143  LEU143     -0.2864
     81  CB       -12.2790   24.0120  -30.4590 C.3   143  LEU143      0.0297
     82  CG       -12.2820   22.7070  -29.6600 C.3   143  LEU143      0.0022
     83  CD1      -13.3470   21.7810  -30.2250 C.3   143  LEU143      0.0001
     84  CD2      -10.9190   22.0450  -29.7240 C.3   143  LEU143      0.0001
     85  N        -15.0900   33.2030  -16.3690 N.3   158  ASP158     -0.1225
     86  CA       -14.1150   32.4600  -15.5760 C.3   158  ASP158      0.1805
     87  C        -12.6990   32.5870  -16.1130 C.2   158  ASP158      0.2597
     88  O        -11.8470   31.7410  -15.8330 O.2   158  ASP158     -0.2718
     89  CB       -14.4920   30.9730  -15.6090 C.3   158  ASP158      0.1424
     90  CG       -14.5580   30.4140  -17.0320 C.2   158  ASP158      0.3668
     91  OD1      -14.3960   31.1750  -17.9880 O.co2 158  ASP158     -0.2456
     92  OD2      -14.7750   29.2080  -17.2060 O.co2 158  ASP158     -0.2456
     93  N        -12.4540   33.6280  -16.8920 N.am  159  HIS159     -0.1975
     94  CA       -11.1560   33.8140  -17.5220 C.3   159  HIS159      0.1656
     95  C        -11.0060   35.2930  -17.8130 C.2   159  HIS159      0.2291
     96  O        -11.8860   35.8880  -18.4360 O.2   159  HIS159     -0.2864
     97  CB       -11.1520   33.0080  -18.8410 C.3   159  HIS159      0.0771
     98  CG        -9.8170   32.9670  -19.5810 C.ar  159  HIS159      0.0820
     99  ND1       -8.6860   32.3700  -19.0340 N.ar  159  HIS159     -0.2267
    100  CD2       -9.4530   33.4290  -20.8060 C.ar  159  HIS159      0.1154
    101  CE1       -7.7020   32.4820  -19.9090 C.ar  159  HIS159      0.1986
    102  NE2       -8.1430   33.1110  -20.9710 N.ar  159  HIS159     -0.2212
    103  N         -2.9440   32.0880  -24.0120 N.3   177  TRP177     -0.1241
    104  CA        -2.8840   30.6610  -24.2270 C.3   177  TRP177      0.1605
    105  C         -1.8900   30.3670  -25.3620 C.2   177  TRP177      0.2264
    106  O         -1.9880   29.3580  -26.0490 O.2   177  TRP177     -0.2867
    107  CB        -4.2800   30.1230  -24.5820 C.3   177  TRP177      0.0550
    108  CG        -5.2530   30.0040  -23.4090 C.ar  177  TRP177      0.0003
    109  CD1       -4.9800   30.1890  -22.0770 C.ar  177  TRP177      0.0946
    110  CD2       -6.6520   29.6370  -23.4760 C.ar  177  TRP177      0.0152
    111  NE1       -6.1130   29.9610  -21.3250 N.ar  177  TRP177     -0.2442
    112  CE2       -7.1400   29.6180  -22.1550 C.ar  177  TRP177      0.0810
    113  CE3       -7.5140   29.3140  -24.5370 C.ar  177  TRP177      0.0012
    114  CZ2       -8.4760   29.2820  -21.8580 C.ar  177  TRP177      0.0191
    115  CZ3       -8.8370   28.9790  -24.2360 C.ar  177  TRP177      0.0001
    116  CH2       -9.3010   28.9660  -22.9090 C.ar  177  TRP177      0.0015
    117  N         -0.4450   29.6660  -30.5130 N.3   180  GLY180     -0.1210
    118  CA        -1.0120   28.5420  -31.2290 C.3   180  GLY180      0.1956
    119  C         -2.5210   28.4540  -31.1230 C.2   180  GLY180      0.2611
    120  O         -3.1290   27.5460  -31.6910 O.2   180  GLY180     -0.2717
    121  N         -3.1240   29.3840  -30.3900 N.am  181  TRP181     -0.1976
    122  CA        -4.5530   29.3890  -30.2070 C.3   181  TRP181      0.1640
    123  C         -5.1470   30.6040  -30.8780 C.2   181  TRP181      0.2290
    124  O         -4.5900   31.6910  -30.7820 O.2   181  TRP181     -0.2864
    125  CB        -4.8730   29.4150  -28.7240 C.3   181  TRP181      0.0576
    126  CG        -6.3330   29.5020  -28.4430 C.ar  181  TRP181      0.0006
    127  CD1       -7.2030   28.4570  -28.2560 C.ar  181  TRP181      0.0946
    128  CD2       -7.1040   30.6990  -28.3000 C.ar  181  TRP181      0.0152
    129  NE1       -8.4660   28.9380  -28.0040 N.ar  181  TRP181     -0.2442
    130  CE2       -8.4350   30.3100  -28.0200 C.ar  181  TRP181      0.0810
    131  CE3       -6.7990   32.0660  -28.3760 C.ar  181  TRP181      0.0012
    132  CZ2       -9.4550   31.2320  -27.8110 C.ar  181  TRP181      0.0191
    133  CZ3       -7.8160   32.9880  -28.1680 C.ar  181  TRP181      0.0001
    134  CH2       -9.1270   32.5660  -27.8880 C.ar  181  TRP181      0.0015
@<TRIPOS>BOND
     1    80    79    2
     2   120   119    2
     3   118   119    1
     4   118   117    1
     5   119   121   am
     6    79    78    1
     7   123   124    2
     8   123   122    1
     9    81    78    1
    10    81    82    1
    11   121   122    1
    12    83    82    1
    13   122   125    1
    14    78    77    1
    15    84    82    1
    16   125   126    1
    17    77    70   am
    18   126   128   ar
    19   126   127   ar
    20   131   128   ar
    21   131   133   ar
    22   128   130   ar
    23   127   129   ar
    24   133   134   ar
    25   130   129   ar
    26   130   132   ar
    27    71    70    2
    28   134   132   ar
    29    70    69    1
    30    68    69    1
    31    69    72    1
    32   106   105    2
    33    72    73    1
    34   105   104    1
    35   107   104    1
    36   107   108    1
    37   113   115   ar
    38   113   110   ar
    39   115   116   ar
    40   104   103    1
    41    73    74    1
    42    75    74    2
    43   110   108   ar
    44   110   112   ar
    45   108   109   ar
    46    74    76   am
    47   116   114   ar
    48   112   114   ar
    49   112   111   ar
    50    61    60    2
    51   109   111   ar
    52    59    60    1
    53    59    62    1
    54    59    58    1
    55    60    63   am
    56    66    65    2
    57    65    64    1
    58   102   100   ar
    59   102   101   ar
    60   100    98   ar
    61    63    64    1
    62    64    67    1
    63     1     2    1
    64   101    99   ar
    65    98    99   ar
    66    98    97    1
    67    10    11    1
    68    10     3   am
    69    97    94    1
    70    11    12    1
    71     2     3    1
    72     2     5    1
    73     6     7    1
    74     6     5    1
    75     8     7    2
    76    96    95    2
    77     3     4    2
    78     7     9   am
    79    13    12    2
    80    91    90   ar
    81    12    14   am
    82    95    94    1
    83    94    93    1
    84    92    90   ar
    85    14    15    1
    86    90    89    1
    87    93    87   am
    88    34    31    1
    89    34    35    1
    90    33    32    2
    91    85    86    1
    92    15    18    1
    93    15    16    1
    94    31    32    1
    95    31    30    1
    96    87    88    2
    97    87    86    1
    98    18    19    1
    99    89    86    1
   100    23    22    2
   101    16    20   am
   102    16    17    2
   103    20    21    1
   104    22    21    1
   105    22    26   am
   106    21    24    1
   107    24    25    1
   108    27    26    1
   109    27    28    1
   110    28    29    2
   111    25    41    1
   112    41    40    1
   113    57    56    2
   114    39    38    2
   115    51    50    1
   116    51    52    1
   117    40    37    1
   118    37    38    1
   119    37    36    1
   120    56    55    1
   121    54    52   am
   122    54    55    1
   123    38    42   am
   124    50    44   am
   125    52    53    2
   126    44    45    2
   127    44    43    1
   128    42    43    1
   129    43    46    1
   130    46    47    1
   131    47    49   am
   132    47    48    2
