@<TRIPOS>MOLECULE
tmp/1bq3C00.pdb
 193 186 0 0 0
SMALL
GASTEIGER

@<TRIPOS>ATOM
      1  N          4.3210  -13.3420   47.0480 N.3     7  ARG7       -0.1231
      2  CA         4.3510  -12.4280   45.9120 C.3     7  ARG7        0.1694
      3  C          2.9810  -11.7490   45.8220 C.2     7  ARG7        0.2592
      4  O          1.9560  -12.4110   45.6690 O.2     7  ARG7       -0.2718
      5  CB         4.6500  -13.1990   44.6180 C.3     7  ARG7        0.0321
      6  CG         4.8590  -12.2970   43.4200 C.3     7  ARG7        0.0489
      7  CD         4.5380  -12.9910   42.1300 C.3     7  ARG7        0.2205
      8  NE         4.6520  -12.0460   41.0260 N.pl3   7  ARG7       -0.0865
      9  CZ         4.8330  -12.3870   39.7510 C.cat   7  ARG7        0.5346
     10  NH1        4.9130  -13.6690   39.4060 N.pl3   7  ARG7        0.1354
     11  NH2        4.9630  -11.4370   38.8250 N.pl3   7  ARG7        0.1354
     12  N          2.9690  -10.4280   45.9180 N.am    8  HIS8       -0.1962
     13  CA         1.7280   -9.6770   45.8740 C.3     8  HIS8        0.1787
     14  C          0.8950   -9.9790   44.6260 C.2     8  HIS8        0.2621
     15  O          1.4320  -10.1310   43.5210 O.2     8  HIS8       -0.2715
     16  CB         2.0310   -8.1860   45.9540 C.3     8  HIS8        0.0785
     17  CG         2.8080   -7.6690   44.7880 C.ar    8  HIS8        0.0821
     18  ND1        2.2160   -7.3550   43.5810 N.ar    8  HIS8       -0.2267
     19  CD2        4.1310   -7.4310   44.6330 C.ar    8  HIS8        0.1154
     20  CE1        3.1420   -6.9470   42.7340 C.ar    8  HIS8        0.1986
     21  NE2        4.3120   -6.9820   43.3470 N.ar    8  HIS8       -0.2212
     22  N         -0.4220  -10.0500   44.8040 N.am    9  GLY9       -0.1940
     23  CA        -1.3000  -10.3290   43.6850 C.3     9  GLY9        0.2014
     24  C         -1.2190   -9.2770   42.5920 C.2     9  GLY9        0.2639
     25  O         -0.3710   -8.3820   42.6310 O.2     9  GLY9       -0.2714
     26  N         -2.1470   -9.3610   41.6450 N.am   10  GLN10      -0.1963
     27  CA        -2.2210   -8.4560   40.5040 C.3    10  GLN10       0.1733
     28  C         -2.2200   -6.9780   40.8410 C.2    10  GLN10       0.2617
     29  O         -2.7030   -6.5810   41.8950 O.2    10  GLN10      -0.2715
     30  CB        -3.4860   -8.7390   39.7010 C.3    10  GLN10       0.0408
     31  CG        -3.3250   -9.6920   38.5560 C.3    10  GLN10       0.0908
     32  CD        -4.3570   -9.4280   37.4730 C.2    10  GLN10       0.2608
     33  OE1       -4.4480  -10.1650   36.4850 O.2    10  GLN10      -0.2717
     34  NE2       -5.1360   -8.3580   37.6470 N.am   10  GLN10      -0.0878
     35  N         -1.7520   -6.1640   39.8950 N.am   11  SER11      -0.1950
     36  CA        -1.7260   -4.7220   40.0870 C.3    11  SER11       0.1924
     37  C         -2.5320   -3.9630   39.0080 C.2    11  SER11       0.2314
     38  O         -2.9600   -4.5450   38.0110 O.2    11  SER11      -0.2863
     39  CB        -0.2850   -4.2210   40.1690 C.3    11  SER11       0.2116
     40  OG         0.3680   -4.3270   38.9280 O.3    11  SER11      -0.2180
     41  N         -1.7030   -2.1250   36.6460 N.3    13  TRP13      -0.1227
     42  CA        -1.0440   -2.0040   35.3490 C.3    13  TRP13       0.1737
     43  C         -0.9600   -3.2930   34.5420 C.2    13  TRP13       0.2595
     44  O         -0.4140   -3.3210   33.4370 O.2    13  TRP13      -0.2718
     45  CB         0.3380   -1.4020   35.5230 C.3    13  TRP13       0.0564
     46  CG         0.3130    0.0460   35.8410 C.ar   13  TRP13       0.0003
     47  CD1       -0.7690    0.7780   36.2300 C.ar   13  TRP13       0.0946
     48  CD2        1.3910    0.9810   35.6510 C.ar   13  TRP13       0.0152
     49  NE1       -0.4480    2.1140   36.2590 N.ar   13  TRP13      -0.2442
     50  CE2        0.8700    2.2710   35.9060 C.ar   13  TRP13       0.0810
     51  CE3        2.7450    0.8570   35.2750 C.ar   13  TRP13       0.0012
     52  CZ2        1.6550    3.4370   35.7880 C.ar   13  TRP13       0.0191
     53  CZ3        3.5280    2.0160   35.1580 C.ar   13  TRP13       0.0001
     54  CH2        2.9750    3.2860   35.4110 C.ar   13  TRP13       0.0015
     55  N         -1.5280   -4.3590   35.0870 N.am   14  ASN14      -0.1974
     56  CA        -1.5260   -5.6450   34.4090 C.3    14  ASN14       0.1688
     57  C         -2.4550   -5.6200   33.1860 C.2    14  ASN14       0.2292
     58  O         -2.2680   -6.3830   32.2440 O.2    14  ASN14      -0.2864
     59  CB        -1.9660   -6.7290   35.3990 C.3    14  ASN14       0.1181
     60  CG        -1.7230   -8.1260   34.8790 C.2    14  ASN14       0.2629
     61  OD1       -2.6180   -8.7520   34.3050 O.2    14  ASN14      -0.2716
     62  ND2       -0.5040   -8.6280   35.0750 N.am   14  ASN14      -0.0877
     63  N          1.6300   -2.1040   30.9450 N.3    18  LEU18      -0.1231
     64  CA         2.7280   -1.1930   31.2380 C.3    18  LEU18       0.1693
     65  C          3.7430   -1.8270   32.1620 C.2    18  LEU18       0.2592
     66  O          3.3690   -2.4740   33.1490 O.2    18  LEU18      -0.2718
     67  CB         2.2130    0.0870   31.9110 C.3    18  LEU18       0.0284
     68  CG         1.1000    0.8840   31.2300 C.3    18  LEU18       0.0019
     69  CD1        0.9250    2.2170   31.9310 C.3    18  LEU18       0.0001
     70  CD2        1.4400    1.1160   29.7630 C.3    18  LEU18       0.0001
     71  N          5.0230   -1.6390   31.8310 N.am   19  PHE19      -0.1962
     72  CA         6.1280   -2.1310   32.6480 C.3    19  PHE19       0.1771
     73  C          6.0670   -1.2600   33.8910 C.2    19  PHE19       0.2620
     74  O          6.1030   -0.0260   33.7830 O.2    19  PHE19      -0.2715
     75  CB         7.4660   -1.9100   31.9590 C.3    19  PHE19       0.0574
     76  CG         7.7470   -2.8690   30.8420 C.ar   19  PHE19      -0.0200
     77  CD1        7.9320   -4.2230   31.1010 C.ar   19  PHE19      -0.0042
     78  CD2        7.8370   -2.4210   29.5360 C.ar   19  PHE19      -0.0042
     79  CE1        8.1990   -5.1120   30.0710 C.ar   19  PHE19      -0.0003
     80  CE2        8.1020   -3.3040   28.5060 C.ar   19  PHE19      -0.0003
     81  CZ         8.2820   -4.6510   28.7740 C.ar   19  PHE19      -0.0000
     82  N          5.9680   -1.9050   35.0560 N.am   20  THR20      -0.1937
     83  CA         5.8410   -1.2210   36.3370 C.3    20  THR20       0.2028
     84  C          7.1290   -0.8900   37.0910 C.2    20  THR20       0.2642
     85  O          7.4340    0.2900   37.3440 O.2    20  THR20      -0.2714
     86  CB         4.9350   -2.0360   37.2640 C.3    20  THR20       0.1808
     87  OG1        3.8200   -2.5190   36.5110 O.3    20  THR20      -0.2208
     88  CG2        4.4320   -1.1770   38.4100 C.3    20  THR20       0.0379
     89  N          7.8380   -1.9310   37.5230 N.am   21  GLY21      -0.1954
     90  CA         9.0630   -1.7000   38.2600 C.3    21  GLY21       0.1869
     91  C          8.8430   -1.0030   39.5930 C.2    21  GLY21       0.2309
     92  O          8.1470   -1.5230   40.4710 O.2    21  GLY21      -0.2863
     93  N          1.8410   -2.0600   46.7230 N.3    59  ARG59      -0.1245
     94  CA         1.2260   -3.3060   46.2930 C.3    59  ARG59       0.1563
     95  C          1.5690   -4.5210   47.1680 C.2    59  ARG59       0.2260
     96  O          0.7490   -5.4100   47.3390 O.2    59  ARG59      -0.2867
     97  CB         1.5150   -3.5530   44.8080 C.3    59  ARG59       0.0307
     98  CG         2.9750   -3.8790   44.4500 C.3    59  ARG59       0.0489
     99  CD         3.2050   -3.8550   42.9290 C.3    59  ARG59       0.2205
    100  NE         3.8000   -2.5790   42.5570 N.pl3  59  ARG59      -0.0865
    101  CZ         4.9150   -2.4390   41.8540 C.cat  59  ARG59       0.5346
    102  NH1        5.5840   -3.5010   41.4030 N.pl3  59  ARG59       0.1354
    103  NH2        5.3920   -1.2220   41.6750 N.pl3  59  ARG59       0.1354
    104  N         10.8410   -4.0140   43.8260 N.3    86  GLU86      -0.1245
    105  CA        10.8340   -4.7420   42.5650 C.3    86  GLU86       0.1567
    106  C         12.0410   -4.2620   41.7610 C.2    86  GLU86       0.2260
    107  O         12.6670   -3.2530   42.1060 O.2    86  GLU86      -0.2867
    108  CB         9.5220   -4.4210   41.8080 C.3    86  GLU86       0.0388
    109  CG         9.4060   -4.9000   40.3630 C.3    86  GLU86       0.1160
    110  CD         9.2790   -6.4140   40.2130 C.2    86  GLU86       0.3649
    111  OE1       10.2190   -7.1390   40.5900 O.co2  86  GLU86      -0.2457
    112  OE2        8.2520   -6.8880   39.6800 O.co2  86  GLU86      -0.2457
    113  N         12.7890   -0.7390   36.4050 N.3    89  TYR89      -0.1241
    114  CA        12.7700   -0.9490   34.9570 C.3    89  TYR89       0.1605
    115  C         13.3520    0.1740   34.1050 C.2    89  TYR89       0.2264
    116  O         13.0330    0.2830   32.9260 O.2    89  TYR89      -0.2867
    117  CB        11.3480   -1.2740   34.4760 C.3    89  TYR89       0.0534
    118  CG        11.1310   -2.7020   34.0390 C.ar   89  TYR89      -0.0201
    119  CD1       11.7250   -3.2000   32.8730 C.ar   89  TYR89      -0.0009
    120  CD2       10.2650   -3.5320   34.7430 C.ar   89  TYR89      -0.0009
    121  CE1       11.4500   -4.4920   32.4060 C.ar   89  TYR89       0.0417
    122  CE2        9.9780   -4.8190   34.2920 C.ar   89  TYR89       0.0417
    123  CZ        10.5690   -5.2920   33.1200 C.ar   89  TYR89       0.1957
    124  OH        10.2310   -6.5540   32.6700 O.3    89  TYR89      -0.2866
    125  N          4.1670   -2.6050   26.9980 N.3    97  LYS97      -0.1245
    126  CA         4.9550   -3.8040   26.7430 C.3    97  LYS97       0.1561
    127  C          4.8940   -4.2070   25.2680 C.2    97  LYS97       0.2260
    128  O          5.9230   -4.5380   24.6740 O.2    97  LYS97      -0.2867
    129  CB         4.4870   -4.9710   27.6280 C.3    97  LYS97       0.0271
    130  CG         4.5840   -4.7320   29.1430 C.3    97  LYS97       0.0035
    131  CD         4.2830   -6.0240   29.9080 C.3    97  LYS97       0.0206
    132  CE         3.8570   -5.7700   31.3430 C.3    97  LYS97       0.1093
    133  NZ         3.0630   -6.9300   31.8720 N.3    97  LYS97      -0.1314
    134  N         13.8500   -8.0330   29.5410 N.3   113  ARG113     -0.1231
    135  CA        12.9460   -8.6800   30.4650 C.3   113  ARG113      0.1694
    136  C         13.5110   -9.8070   31.3080 C.2   113  ARG113      0.2591
    137  O         13.2920   -9.8290   32.5180 O.2   113  ARG113     -0.2718
    138  CB        11.7010   -9.1740   29.7220 C.3   113  ARG113      0.0321
    139  CG        10.5460   -8.2070   29.7280 C.3   113  ARG113      0.0489
    140  CD         9.2930   -8.8330   29.1170 C.3   113  ARG113      0.2205
    141  NE         8.9410  -10.1130   29.7320 N.pl3 113  ARG113     -0.0865
    142  CZ         8.9120  -11.2790   29.0830 C.cat 113  ARG113      0.5346
    143  NH1        9.2110  -11.3300   27.7910 N.pl3 113  ARG113      0.1354
    144  NH2        8.6160  -12.4030   29.7310 N.pl3 113  ARG113      0.1354
    145  N         14.2270  -10.7420   30.6910 N.am  114  ARG114     -0.1980
    146  CA        14.7330  -11.8910   31.4400 C.3   114  ARG114      0.1597
    147  C         16.2250  -12.1900   31.4110 C.2   114  ARG114      0.2287
    148  O         16.6310  -13.3550   31.4790 O.2   114  ARG114     -0.2864
    149  CB        13.9460  -13.1610   31.0680 C.3   114  ARG114      0.0334
    150  CG        12.4370  -13.0970   31.3510 C.3   114  ARG114      0.0492
    151  CD        12.1320  -12.6720   32.7870 C.3   114  ARG114      0.2205
    152  NE        11.7440  -13.7770   33.6600 N.pl3 114  ARG114     -0.0865
    153  CZ        10.6250  -13.7890   34.3800 C.cat 114  ARG114      0.5346
    154  NH1        9.7960  -12.7530   34.3110 N.pl3 114  ARG114      0.1354
    155  NH2       10.3390  -14.8180   35.1750 N.pl3 114  ARG114      0.1354
    156  N          8.0510  -10.0530   42.4410 N.3   182  GLY182     -0.1210
    157  CA         8.5560  -11.1880   41.6820 C.3   182  GLY182      0.1956
    158  C         10.0560  -11.3000   41.4950 C.2   182  GLY182      0.2611
    159  O         10.6310  -12.3690   41.7280 O.2   182  GLY182     -0.2717
    160  N         10.6970  -10.2150   41.0580 N.am  183  ASN183     -0.1974
    161  CA        12.1480  -10.2270   40.8410 C.3   183  ASN183      0.1688
    162  C         12.9370  -10.4390   42.1160 C.2   183  ASN183      0.2292
    163  O         13.6880  -11.4080   42.2170 O.2   183  ASN183     -0.2864
    164  CB        12.6220   -8.9570   40.1260 C.3   183  ASN183      0.1181
    165  CG        12.3470   -8.9950   38.6360 C.2   183  ASN183      0.2629
    166  OD1       12.9690   -9.7650   37.9070 O.2   183  ASN183     -0.2716
    167  ND2       11.4020   -8.1720   38.1760 N.am  183  ASN183     -0.0877
    168  N         12.5690  -13.9010   43.4490 N.3   186  ARG186     -0.1245
    169  CA        13.2780  -14.9030   42.6560 C.3   186  ARG186      0.1563
    170  C         14.7720  -14.7220   42.9310 C.2   186  ARG186      0.2260
    171  O         15.5350  -15.6950   42.9440 O.2   186  ARG186     -0.2867
    172  CB        13.0040  -14.7390   41.1610 C.3   186  ARG186      0.0307
    173  CG        11.7140  -15.3690   40.6580 C.3   186  ARG186      0.0489
    174  CD        11.7120  -15.3870   39.1300 C.3   186  ARG186      0.2205
    175  NE        11.8530  -14.0450   38.5840 N.pl3 186  ARG186     -0.0865
    176  CZ        12.7910  -13.6770   37.7220 C.cat 186  ARG186      0.5346
    177  NH1       13.6890  -14.5560   37.2880 N.pl3 186  ARG186      0.1354
    178  NH2       12.8420  -12.4150   37.3120 N.pl3 186  ARG186      0.1354
    179  N          9.5200  -19.2340   38.1210 N.3   204  ASN204     -0.1240
    180  CA         8.3740  -18.3700   38.3050 C.3   204  ASN204      0.1653
    181  C          7.7280  -18.5550   39.6610 C.2   204  ASN204      0.2266
    182  O          7.5210  -19.6840   40.1280 O.2   204  ASN204     -0.2867
    183  CB         7.3450  -18.6030   37.2060 C.3   204  ASN204      0.1155
    184  CG         6.2180  -17.6050   37.2600 C.2   204  ASN204      0.2627
    185  OD1        5.1420  -17.9000   37.7860 O.2   204  ASN204     -0.2716
    186  ND2        6.4580  -16.4090   36.7250 N.am  204  ASN204     -0.0877
    187  N          1.7550  -15.6510   42.1130 N.3   207  THR207     -0.1218
    188  CA         1.2570  -14.5300   42.8970 C.3   207  THR207      0.1862
    189  C          0.2510  -15.0550   43.9450 C.2   207  THR207      0.2287
    190  O         -0.5020  -15.9960   43.6650 O.2   207  THR207     -0.2866
    191  CB         0.5070  -13.5190   41.9950 C.3   207  THR207      0.1770
    192  OG1       -0.6190  -14.1720   41.4040 O.3   207  THR207     -0.2211
    193  CG2        1.3870  -13.0120   40.8860 C.3   207  THR207      0.0375
@<TRIPOS>BOND
     1   128   127    2
     2   127   126    1
     3   126   125    1
     4   126   129    1
     5   129   130    1
     6   143   142    1
     7    80    81   ar
     8    80    78   ar
     9    81    79   ar
    10   142   144    1
    11   142   141    2
    12   140   139    1
    13   140   141    1
    14   130   131    1
    15    78    76   ar
    16   134   135    1
    17   138   139    1
    18   138   135    1
    19    70    68    1
    20   131   132    1
    21    79    77   ar
    22   135   136    1
    23   145   136   am
    24   145   146    1
    25    76    77   ar
    26    76    75    1
    27    63    64    1
    28   149   150    1
    29   149   146    1
    30    68    67    1
    31    68    69    1
    32    64    67    1
    33    64    65    1
    34   136   137    2
    35   132   133    1
    36   150   151    1
    37   147   146    1
    38   147   148    2
    39    71    65   am
    40    71    72    1
    41    75    72    1
    42    65    66    2
    43    58    57    2
    44   121   119   ar
    45   121   123   ar
    46    72    73    1
    47   124   123    1
    48   151   152    1
    49   119   118   ar
    50   116   115    2
    51   123   122   ar
    52    57    56    1
    53    44    43    2
    54   152   153    2
    55    74    73    2
    56    73    82   am
    57   118   117    1
    58   118   120   ar
    59   115   114    1
    60   122   120   ar
    61    61    60    2
    62   154   153    1
    63   153   155    1
    64    56    55    1
    65    56    59    1
    66   117   114    1
    67    43    55   am
    68    43    42    1
    69    60    62   am
    70    60    59    1
    71   114   113    1
    72    82    83    1
    73    53    51   ar
    74    53    54   ar
    75    51    48   ar
    76    42    45    1
    77    42    41    1
    78    54    52   ar
    79    45    46    1
    80    48    46   ar
    81    48    50   ar
    82    52    50   ar
    83    46    47   ar
    84    50    49   ar
    85    47    49   ar
    86    83    84    1
    87    83    86    1
    88    33    32    2
    89    87    86    1
    90   186   184   am
    91    84    85    2
    92    84    89   am
    93   183   184    1
    94   183   180    1
    95   184   185    2
    96    86    88    1
    97   177   176    1
    98   178   176    1
    99    32    34   am
   100    32    31    1
   101    89    90    1
   102   176   175    2
   103   166   165    2
   104    38    37    2
   105   179   180    1
   106   167   165   am
   107    90    91    1
   108   180   181    1
   109    31    30    1
   110   175   174    1
   111   165   164    1
   112    11     9    1
   113    40    39    1
   114    37    36    1
   115   174   173    1
   116    10     9    1
   117    91    92    2
   118   181   182    2
   119   112   110   ar
   120    30    27    1
   121     9     8    2
   122    35    36    1
   123    35    28   am
   124    36    39    1
   125   164   161    1
   126   110   109    1
   127   110   111   ar
   128   109   108    1
   129    27    28    1
   130    27    26    1
   131   173   172    1
   132    28    29    2
   133   161   160    1
   134   161   162    1
   135   193   191    1
   136     8     7    1
   137   160   158   am
   138   172   169    1
   139   102   101    1
   140   192   191    1
   141   158   157    1
   142   158   159    2
   143    26    24   am
   144   103   101    1
   145   157   156    1
   146   106   107    2
   147   106   105    1
   148   108   105    1
   149   101   100    2
   150   191   188    1
   151   187   188    1
   152   162   163    2
   153     7     6    1
   154   100    99    1
   155   105   104    1
   156    24    25    2
   157    24    23    1
   158   169   170    1
   159   169   168    1
   160    20    21   ar
   161    20    18   ar
   162   188   189    1
   163    99    98    1
   164   170   171    2
   165    21    19   ar
   166     6     5    1
   167    15    14    2
   168    18    17   ar
   169   190   189    2
   170    23    22    1
   171    98    97    1
   172     5     2    1
   173    14    22   am
   174    14    13    1
   175    19    17   ar
   176    17    16    1
   177    97    94    1
   178     4     3    2
   179     3     2    1
   180     3    12   am
   181    13    12    1
   182    13    16    1
   183     2     1    1
   184    94    93    1
   185    94    95    1
   186    95    96    2
