@<TRIPOS>MOLECULE
tmp/1bq4C00.pdb
 163 154 0 0 0
SMALL
GASTEIGER

@<TRIPOS>ATOM
      1  N          4.4540  -12.8720   46.8600 N.3     7  ARG7       -0.1231
      2  CA         4.5090  -12.0000   45.7020 C.3     7  ARG7        0.1694
      3  C          3.1390  -11.3260   45.6430 C.2     7  ARG7        0.2592
      4  O          2.1270  -12.0020   45.6560 O.2     7  ARG7       -0.2718
      5  CB         4.7140  -12.7850   44.3900 C.3     7  ARG7        0.0321
      6  CG         5.1440  -11.8660   43.2620 C.3     7  ARG7        0.0489
      7  CD         4.8570  -12.3990   41.9140 C.3     7  ARG7        0.2205
      8  NE         5.5310  -11.6000   40.8950 N.pl3   7  ARG7       -0.0865
      9  CZ         5.4600  -11.8200   39.5870 C.cat   7  ARG7        0.5346
     10  NH1        4.7110  -12.8130   39.1440 N.pl3   7  ARG7        0.1354
     11  NH2        6.2270  -11.1200   38.7400 N.pl3   7  ARG7        0.1354
     12  N          3.1130   -9.9990   45.6230 N.am    8  HIS8       -0.1976
     13  CA         1.8900   -9.2490   45.5430 C.3     8  HIS8        0.1656
     14  C          1.1980   -9.5340   44.1910 C.2     8  HIS8        0.2291
     15  O          1.8870   -9.7760   43.1770 O.2     8  HIS8       -0.2864
     16  CB         2.1740   -7.7440   45.7500 C.3     8  HIS8        0.0771
     17  CG         2.9300   -7.0730   44.6270 C.ar    8  HIS8        0.0820
     18  ND1        2.4610   -7.0190   43.3320 N.ar    8  HIS8       -0.2267
     19  CD2        4.0690   -6.3370   44.6350 C.ar    8  HIS8        0.1154
     20  CE1        3.2670   -6.2760   42.5960 C.ar    8  HIS8        0.1986
     21  NE2        4.2510   -5.8490   43.3620 N.ar    8  HIS8       -0.2212
     22  N         -0.7170   -3.4800   35.5530 N.3    14  ASN14      -0.1240
     23  CA        -0.5890   -4.8630   35.0640 C.3    14  ASN14       0.1653
     24  C         -1.7550   -5.0770   34.0980 C.2    14  ASN14       0.2266
     25  O         -1.7440   -5.9860   33.2530 O.2    14  ASN14      -0.2867
     26  CB        -0.7610   -5.8340   36.2440 C.3    14  ASN14       0.1155
     27  CG         0.1770   -7.0420   36.1950 C.2    14  ASN14       0.2627
     28  OD1        0.2270   -7.7830   35.2030 O.2    14  ASN14      -0.2716
     29  ND2        0.8580   -7.2950   37.3220 N.am   14  ASN14      -0.0877
     30  N          1.6700   -1.7160   31.2670 N.3    18  LEU18      -0.1231
     31  CA         2.7890   -0.7630   31.5360 C.3    18  LEU18       0.1693
     32  C          3.8600   -1.3410   32.4630 C.2    18  LEU18       0.2592
     33  O          3.5560   -1.9580   33.4720 O.2    18  LEU18      -0.2718
     34  CB         2.3120    0.5930   32.1210 C.3    18  LEU18       0.0284
     35  CG         1.2840    1.5040   31.4130 C.3    18  LEU18       0.0019
     36  CD1        1.1390    2.8490   32.1240 C.3    18  LEU18       0.0001
     37  CD2        1.7030    1.7500   29.9940 C.3    18  LEU18       0.0001
     38  N          5.1170   -1.1650   32.0760 N.am   19  PHE19      -0.1962
     39  CA         6.2840   -1.6400   32.8410 C.3    19  PHE19       0.1771
     40  C          6.3000   -0.7950   34.0830 C.2    19  PHE19       0.2620
     41  O          6.4180    0.4310   33.9800 O.2    19  PHE19      -0.2715
     42  CB         7.5840   -1.3780   32.0520 C.3    19  PHE19       0.0574
     43  CG         7.8600   -2.3830   30.9600 C.ar   19  PHE19      -0.0200
     44  CD1        8.0990   -1.9520   29.6290 C.ar   19  PHE19      -0.0042
     45  CD2        7.9120   -3.7590   31.2450 C.ar   19  PHE19      -0.0042
     46  CE1        8.3930   -2.8690   28.5770 C.ar   19  PHE19      -0.0003
     47  CE2        8.2040   -4.6970   30.2030 C.ar   19  PHE19      -0.0003
     48  CZ         8.4460   -4.2350   28.8400 C.ar   19  PHE19      -0.0000
     49  N          6.2450   -1.4350   35.2440 N.am   20  THR20      -0.1951
     50  CA         6.1920   -0.6940   36.4930 C.3    20  THR20       0.1897
     51  C          7.4810   -0.4810   37.2500 C.2    20  THR20       0.2313
     52  O          7.8480    0.6830   37.5030 O.2    20  THR20      -0.2863
     53  CB         5.1620   -1.2580   37.4550 C.3    20  THR20       0.1794
     54  OG1        3.8990   -1.4520   36.7830 O.3    20  THR20      -0.2208
     55  CG2        4.9690   -0.2800   38.5650 C.3    20  THR20       0.0378
     56  N          1.8580   -1.5360   46.6310 N.3    59  ARG59      -0.1245
     57  CA         1.2240   -2.7750   46.2150 C.3    59  ARG59       0.1563
     58  C          1.6900   -3.9780   47.0410 C.2    59  ARG59       0.2260
     59  O          0.9430   -4.9230   47.2450 O.2    59  ARG59      -0.2867
     60  CB         1.4700   -2.9630   44.7460 C.3    59  ARG59       0.0307
     61  CG         2.7630   -2.3140   44.3270 C.3    59  ARG59       0.0489
     62  CD         3.2700   -2.9410   43.0610 C.3    59  ARG59       0.2205
     63  NE         4.1560   -1.9690   42.4990 N.pl3  59  ARG59      -0.0865
     64  CZ         5.1300   -2.2400   41.6570 C.cat  59  ARG59       0.5346
     65  NH1        5.3530   -3.5000   41.2490 N.pl3  59  ARG59       0.1354
     66  NH2        5.9410   -1.2550   41.2910 N.pl3  59  ARG59       0.1354
     67  N         11.1300   -3.8880   43.8130 N.3    86  GLU86      -0.1231
     68  CA        11.1760   -4.6400   42.5890 C.3    86  GLU86       0.1699
     69  C         12.3150   -3.9800   41.7760 C.2    86  GLU86       0.2592
     70  O         12.7540   -2.8620   42.0480 O.2    86  GLU86      -0.2718
     71  CB         9.8000   -4.4460   41.9090 C.3    86  GLU86       0.0402
     72  CG         9.6420   -4.8530   40.4590 C.3    86  GLU86       0.1161
     73  CD         9.3590   -6.3450   40.2630 C.2    86  GLU86       0.3649
     74  OE1        8.2090   -6.7030   39.8620 O.co2  86  GLU86      -0.2457
     75  OE2       10.3010   -7.1550   40.5020 O.co2  86  GLU86      -0.2457
     76  N         12.7580   -4.6710   40.7500 N.am   87  ARG87      -0.1980
     77  CA        13.8100   -4.1540   39.9130 C.3    87  ARG87       0.1597
     78  C         13.3720   -2.8210   39.3030 C.2    87  ARG87       0.2287
     79  O         12.2810   -2.7390   38.7560 O.2    87  ARG87      -0.2864
     80  CB        14.0960   -5.1840   38.8160 C.3    87  ARG87       0.0334
     81  CG        15.1150   -4.7640   37.7760 C.3    87  ARG87       0.0492
     82  CD        14.4730   -4.6080   36.4190 C.3    87  ARG87       0.2205
     83  NE        13.6930   -5.7900   36.0550 N.pl3  87  ARG87      -0.0865
     84  CZ        13.8330   -6.4650   34.9170 C.cat  87  ARG87       0.5346
     85  NH1       14.7330   -6.0810   34.0220 N.pl3  87  ARG87       0.1354
     86  NH2       13.0680   -7.5210   34.6660 N.pl3  87  ARG87       0.1354
     87  N         13.0660   -0.2100   36.6340 N.3    89  TYR89      -0.1241
     88  CA        13.0120   -0.4670   35.2170 C.3    89  TYR89       0.1605
     89  C         13.6420    0.6140   34.3230 C.2    89  TYR89       0.2264
     90  O         13.5550    0.5500   33.0930 O.2    89  TYR89      -0.2867
     91  CB        11.5400   -0.7280   34.8370 C.3    89  TYR89       0.0534
     92  CG        11.2710   -2.1120   34.2830 C.ar   89  TYR89      -0.0201
     93  CD1       11.8780   -2.5370   33.1120 C.ar   89  TYR89      -0.0009
     94  CD2       10.4170   -2.9820   34.9150 C.ar   89  TYR89      -0.0009
     95  CE1       11.6290   -3.7980   32.5870 C.ar   89  TYR89       0.0417
     96  CE2       10.1670   -4.2330   34.3940 C.ar   89  TYR89       0.0417
     97  CZ        10.7670   -4.6340   33.2310 C.ar   89  TYR89       0.1957
     98  OH        10.4750   -5.8510   32.6570 O.3    89  TYR89      -0.2866
     99  N          4.1050   -2.3220   27.2050 N.3    97  LYS97      -0.1245
    100  CA         4.8590   -3.5540   26.9290 C.3    97  LYS97       0.1561
    101  C          4.7410   -4.0120   25.5170 C.2    97  LYS97       0.2260
    102  O          5.6220   -4.6930   25.0100 O.2    97  LYS97      -0.2867
    103  CB         4.4550   -4.7180   27.8550 C.3    97  LYS97       0.0271
    104  CG         4.8170   -4.5650   29.3370 C.3    97  LYS97       0.0035
    105  CD         4.4340   -5.8650   30.0710 C.3    97  LYS97       0.0206
    106  CE         4.2560   -5.7560   31.6030 C.3    97  LYS97       0.1093
    107  NZ         3.2420   -6.7690   32.1590 N.3    97  LYS97      -0.1314
    108  N         13.8790   -7.6980   29.7930 N.3   113  ARG113     -0.1231
    109  CA        13.0090   -8.3880   30.7330 C.3   113  ARG113      0.1694
    110  C         13.6110   -9.5180   31.5510 C.2   113  ARG113      0.2591
    111  O         13.2580   -9.6900   32.7130 O.2   113  ARG113     -0.2718
    112  CB        11.8120   -8.9840   29.9940 C.3   113  ARG113      0.0321
    113  CG        10.7720   -8.0090   29.4770 C.3   113  ARG113      0.0489
    114  CD         9.3720   -8.6740   29.4970 C.3   113  ARG113      0.2205
    115  NE         9.4660  -10.1350   29.4100 N.pl3 113  ARG113     -0.0865
    116  CZ         8.8620  -10.9810   30.2410 C.cat 113  ARG113      0.5346
    117  NH1        8.0910  -10.5140   31.2140 N.pl3 113  ARG113      0.1354
    118  NH2        9.1200  -12.2850   30.1800 N.pl3 113  ARG113      0.1354
    119  N         14.4940  -10.3000   30.9370 N.am  114  ARG114     -0.1980
    120  CA        15.0520  -11.4710   31.5870 C.3   114  ARG114      0.1597
    121  C         16.5690  -11.6800   31.6150 C.2   114  ARG114      0.2287
    122  O         17.0500  -12.7150   32.1120 O.2   114  ARG114     -0.2864
    123  CB        14.3590  -12.7170   31.0300 C.3   114  ARG114      0.0334
    124  CG        12.9070  -12.8580   31.4330 C.3   114  ARG114      0.0492
    125  CD        12.7820  -12.8240   32.9570 C.3   114  ARG114      0.2205
    126  NE        11.9300  -13.8890   33.4800 N.pl3 114  ARG114     -0.0865
    127  CZ        11.0920  -13.7300   34.4970 C.cat 114  ARG114      0.5346
    128  NH1       11.0190  -12.5450   35.0810 N.pl3 114  ARG114      0.1354
    129  NH2       10.3010  -14.7280   34.8980 N.pl3 114  ARG114      0.1354
    130  N         11.0340   -9.9120   41.1180 N.3   183  ASN183     -0.1240
    131  CA        12.4860   -9.9790   40.9290 C.3   183  ASN183      0.1653
    132  C         13.2570   -9.9330   42.2320 C.2   183  ASN183      0.2266
    133  O         14.2960  -10.5820   42.3480 O.2   183  ASN183     -0.2867
    134  CB        12.9470   -8.8870   39.9590 C.3   183  ASN183      0.1155
    135  CG        12.4550   -9.1310   38.5410 C.2   183  ASN183      0.2627
    136  OD1       12.8160  -10.1330   37.9390 O.2   183  ASN183     -0.2716
    137  ND2       11.5790   -8.2550   38.0320 N.am  183  ASN183     -0.0877
    138  N         12.7890  -13.2810   43.2850 N.3   186  ARG186     -0.1245
    139  CA        13.5270  -14.0740   42.2830 C.3   186  ARG186      0.1563
    140  C         15.0200  -13.9870   42.7900 C.2   186  ARG186      0.2260
    141  O         15.7100  -14.9800   42.9820 O.2   186  ARG186     -0.2867
    142  CB        13.4390  -13.3870   40.8780 C.3   186  ARG186      0.0307
    143  CG        12.6070  -14.0680   39.7300 C.3   186  ARG186      0.0489
    144  CD        12.5370  -13.1940   38.4290 C.3   186  ARG186      0.2205
    145  NE        13.4300  -13.6850   37.3590 N.pl3 186  ARG186     -0.0865
    146  CZ        14.2200  -12.9340   36.5510 C.cat 186  ARG186      0.5346
    147  NH1       14.9900  -13.5040   35.6060 N.pl3 186  ARG186      0.1354
    148  NH2       14.2820  -11.6050   36.6840 N.pl3 186  ARG186      0.1354
    149  N          9.6550  -18.2260   38.0450 N.3   204  ASN204     -0.1240
    150  CA         8.5830  -17.2630   38.2570 C.3   204  ASN204      0.1653
    151  C          8.0590  -17.5980   39.6380 C.2   204  ASN204      0.2266
    152  O          8.2610  -18.7060   40.1450 O.2   204  ASN204     -0.2867
    153  CB         7.4400  -17.4000   37.2240 C.3   204  ASN204      0.1155
    154  CG         6.6710  -16.0880   37.0150 C.2   204  ASN204      0.2627
    155  OD1        7.2820  -15.0150   36.8860 O.2   204  ASN204     -0.2716
    156  ND2        5.3340  -16.1710   36.9580 N.am  204  ASN204     -0.0877
    157  N          1.9300  -15.4650   41.9800 N.3   207  THR207     -0.1218
    158  CA         1.3740  -14.3790   42.7620 C.3   207  THR207      0.1862
    159  C          0.3460  -14.9920   43.6960 C.2   207  THR207      0.2287
    160  O         -0.2780  -16.0130   43.3590 O.2   207  THR207     -0.2866
    161  CB         0.6540  -13.3620   41.8570 C.3   207  THR207      0.1770
    162  OG1       -0.4090  -14.0220   41.1360 O.3   207  THR207     -0.2211
    163  CG2        1.6420  -12.7380   40.8670 C.3   207  THR207      0.0375
@<TRIPOS>BOND
     1   102   101    2
     2   101   100    1
     3   100    99    1
     4   100   103    1
     5   103   104    1
     6    46    48   ar
     7    46    44   ar
     8    48    47   ar
     9   104   105    1
    10   115   114    1
    11   115   116    2
    12   113   114    1
    13   113   112    1
    14    44    43   ar
    15   108   109    1
    16    37    35    1
    17   112   109    1
    18   105   106    1
    19   118   116    1
    20    47    45   ar
    21   116   117    1
    22   109   110    1
    23   119   110   am
    24   119   120    1
    25    43    45   ar
    26    43    42    1
    27   123   124    1
    28   123   120    1
    29    30    31    1
    30    35    34    1
    31    35    36    1
    32   124   125    1
    33    31    34    1
    34    31    32    1
    35   110   111    2
    36   120   121    1
    37   106   107    1
    38   121   122    2
    39    42    39    1
    40    38    32   am
    41    38    39    1
    42    32    33    2
    43    95    93   ar
    44    95    97   ar
    45    98    97    1
    46    39    40    1
    47   125   126    1
    48    90    89    2
    49    93    92   ar
    50    97    96   ar
    51    25    24    2
    52   126   127    2
    53    41    40    2
    54    85    84    1
    55    40    49   am
    56    24    23    1
    57    92    91    1
    58    92    94   ar
    59    89    88    1
    60    96    94   ar
    61   127   129    1
    62   127   128    1
    63    86    84    1
    64    91    88    1
    65    84    83    2
    66    23    22    1
    67    23    26    1
    68    28    27    2
    69    88    87    1
    70    49    50    1
    71   147   146    1
    72    83    82    1
    73    27    26    1
    74    27    29   am
    75    82    81    1
    76    50    51    1
    77    50    53    1
    78   146   148    1
    79   146   145    2
    80    54    53    1
    81   155   154    2
    82   156   154   am
    83   154   153    1
    84   153   150    1
    85    51    52    2
    86   145   144    1
    87    53    55    1
    88    81    80    1
    89   136   135    2
    90   137   135   am
    91   149   150    1
    92   150   151    1
    93   144   143    1
    94   135   134    1
    95    11     9    1
    96    79    78    2
    97    80    77    1
    98    10     9    1
    99    78    77    1
   100     9     8    2
   101   151   152    2
   102   143   142    1
   103    74    73   ar
   104    77    76    1
   105   134   131    1
   106    73    72    1
   107    73    75   ar
   108    72    71    1
   109    76    69   am
   110   163   161    1
   111   142   139    1
   112     8     7    1
   113   131   130    1
   114   131   132    1
   115   162   161    1
   116    65    64    1
   117    66    64    1
   118    64    63    2
   119    69    70    2
   120    69    68    1
   121   161   158    1
   122    71    68    1
   123     7     6    1
   124   157   158    1
   125   132   133    2
   126   139   140    1
   127   139   138    1
   128    63    62    1
   129    68    67    1
   130    20    18   ar
   131    20    21   ar
   132   158   159    1
   133   140   141    2
   134    62    61    1
   135    15    14    2
   136     6     5    1
   137    18    17   ar
   138   160   159    2
   139    21    19   ar
   140    14    13    1
   141    61    60    1
   142     5     2    1
   143    17    19   ar
   144    17    16    1
   145    60    57    1
   146    13    12    1
   147    13    16    1
   148    12     3   am
   149     3     4    2
   150     3     2    1
   151     2     1    1
   152    57    56    1
   153    57    58    1
   154    58    59    2
