@<TRIPOS>MOLECULE
tmp/1bqhH00.pdb
 107 101 0 0 0
SMALL
GASTEIGER

@<TRIPOS>ATOM
      1  N          4.1130   35.6920    3.4840 N.3    40  PHE40      -0.1241
      2  CA         4.3610   36.6510    2.4230 C.3    40  PHE40       0.1605
      3  C          3.2310   37.6640    2.3110 C.2    40  PHE40       0.2264
      4  O          2.0640   37.2980    2.3970 O.2    40  PHE40      -0.2867
      5  CB         4.5080   35.8870    1.1120 C.3    40  PHE40       0.0534
      6  CG         4.4810   36.7520   -0.1190 C.ar   40  PHE40      -0.0203
      7  CD1        5.3590   37.8150   -0.2620 C.ar   40  PHE40      -0.0042
      8  CD2        3.6070   36.4710   -1.1600 C.ar   40  PHE40      -0.0042
      9  CE1        5.3670   38.5750   -1.4220 C.ar   40  PHE40      -0.0003
     10  CE2        3.6140   37.2270   -2.3160 C.ar   40  PHE40      -0.0003
     11  CZ         4.4940   38.2780   -2.4480 C.ar   40  PHE40      -0.0000
     12  N          2.0020   40.1160   -0.3790 N.3    42  ASN42      -0.1225
     13  CA         2.1280   40.5570   -1.7670 C.3    42  ASN42       0.1785
     14  C          2.3480   42.0600   -1.8860 C.2    42  ASN42       0.2598
     15  O          1.6880   42.8610   -1.2190 O.2    42  ASN42      -0.2718
     16  CB         0.8820   40.1530   -2.5870 C.3    42  ASN42       0.1169
     17  CG         1.1710   40.0920   -4.1340 C.2    42  ASN42       0.2627
     18  OD1        1.9280   40.8070   -4.6710 O.2    42  ASN42      -0.2716
     19  ND2        0.4760   39.1490   -4.6910 N.am   42  ASN42      -0.0877
     20  N          3.2890   42.4350   -2.7440 N.am   43  SER43      -0.1938
     21  CA         3.6070   43.8370   -2.9660 C.3    43  SER43       0.2055
     22  C          2.3950   44.5620   -3.5300 C.2    43  SER43       0.2643
     23  O          2.1140   45.7010   -3.1580 O.2    43  SER43      -0.2714
     24  CB         4.7730   43.9660   -3.9410 C.3    43  SER43       0.2130
     25  OG         5.3230   45.2700   -3.8840 O.3    43  SER43      -0.2179
     26  N          1.6850   43.8900   -4.4310 N.am   44  SER44      -0.1949
     27  CA         0.4950   44.4570   -5.0530 C.3    44  SER44       0.1924
     28  C         -0.7190   44.2940   -4.1340 C.2    44  SER44       0.2314
     29  O         -1.3660   43.2510   -4.1200 O.2    44  SER44      -0.2863
     30  CB         0.2250   43.7710   -6.4010 C.3    44  SER44       0.2116
     31  OG         0.0080   42.3810   -6.2390 O.3    44  SER44      -0.2180
     32  N         -0.1110   36.2000    3.0960 N.3    51  THR51      -0.1218
     33  CA        -0.3570   35.0070    2.3260 C.3    51  THR51       0.1862
     34  C          0.5730   33.8960    2.7950 C.2    51  THR51       0.2287
     35  O          1.8050   34.0160    2.7580 O.2    51  THR51      -0.2866
     36  CB        -0.1300   35.2490    0.8210 C.3    51  THR51       0.1770
     37  OG1        1.2080   35.7250    0.6040 O.3    51  THR51      -0.2211
     38  CG2       -1.1280   36.2700    0.2900 C.3    51  THR51       0.0375
     39  N         -2.8560   27.0040   -3.4190 N.3    68  LYS68      -0.1231
     40  CA        -3.5770   28.1310   -3.9770 C.3    68  LYS68       0.1693
     41  C         -2.8150   28.7640   -5.1510 C.2    68  LYS68       0.2591
     42  O         -1.5780   28.8450   -5.1210 O.2    68  LYS68      -0.2718
     43  CB        -3.8310   29.1350   -2.8580 C.3    68  LYS68       0.0285
     44  CG        -4.6400   30.3270   -3.2610 C.3    68  LYS68       0.0035
     45  CD        -4.9140   31.1950   -2.0460 C.3    68  LYS68       0.0206
     46  CE        -4.8460   32.6750   -2.3960 C.3    68  LYS68       0.1093
     47  NZ        -4.9700   33.5540   -1.2010 N.3    68  LYS68      -0.1314
     48  N         -3.5930   29.2150   -6.1560 N.am   69  LEU69      -0.1980
     49  CA        -3.1330   29.8180   -7.4290 C.3    69  LEU69       0.1596
     50  C         -1.7570   29.2180   -7.6340 C.2    69  LEU69       0.2287
     51  O         -0.7410   29.9110   -7.8540 O.2    69  LEU69      -0.2864
     52  CB        -3.1290   31.3760   -7.4060 C.3    69  LEU69       0.0297
     53  CG        -3.4220   32.1390   -8.7370 C.3    69  LEU69       0.0022
     54  CD1       -4.4410   31.3760   -9.5850 C.3    69  LEU69       0.0001
     55  CD2       -3.9680   33.5380   -8.4510 C.3    69  LEU69       0.0001
     56  N          1.3800   27.9810   -7.2900 N.3    71  SER71      -0.1217
     57  CA         2.5670   28.6930   -7.6450 C.3    71  SER71       0.1889
     58  C          3.7400   27.7670   -7.4240 C.2    71  SER71       0.2288
     59  O          4.8570   28.2070   -7.1630 O.2    71  SER71      -0.2866
     60  CB         2.6280   29.9350   -6.7740 C.3    71  SER71       0.2089
     61  OG         1.3110   30.4570   -6.6260 O.3    71  SER71      -0.2183
     62  N          7.8120   28.4780   -8.4130 N.3    74  LEU74      -0.1231
     63  CA         8.5540   29.6710   -8.0120 C.3    74  LEU74       0.1693
     64  C          8.9750   29.5710   -6.5480 C.2    74  LEU74       0.2592
     65  O          9.8730   30.2770   -6.0940 O.2    74  LEU74      -0.2718
     66  CB         7.6800   30.9170   -8.2190 C.3    74  LEU74       0.0284
     67  CG         6.1770   30.7720   -7.9190 C.3    74  LEU74       0.0019
     68  CD1        5.5760   32.1380   -7.5980 C.3    74  LEU74       0.0001
     69  CD2        5.4650   30.1620   -9.1180 C.3    74  LEU74       0.0001
     70  N          8.3240   28.6750   -5.8160 N.am   75  PHE75      -0.1976
     71  CA         8.6160   28.4880   -4.4080 C.3    75  PHE75       0.1639
     72  C          9.2700   27.1550   -4.0940 C.2    75  PHE75       0.2290
     73  O          8.8280   26.1070   -4.5690 O.2    75  PHE75      -0.2864
     74  CB         7.3260   28.6160   -3.6050 C.3    75  PHE75       0.0560
     75  CG         6.7930   30.0140   -3.5460 C.ar   75  PHE75      -0.0200
     76  CD1        7.6400   31.0800   -3.2810 C.ar   75  PHE75      -0.0042
     77  CD2        5.4460   30.2660   -3.7510 C.ar   75  PHE75      -0.0042
     78  CE1        7.1560   32.3740   -3.2190 C.ar   75  PHE75      -0.0003
     79  CE2        4.9500   31.5580   -3.6910 C.ar   75  PHE75      -0.0003
     80  CZ         5.8070   32.6150   -3.4240 C.ar   75  PHE75      -0.0000
     81  N          7.6470   38.8630  -11.1420 N.3    94  LYS94      -0.1231
     82  CA         6.7990   39.9160  -10.5650 C.3    94  LYS94       0.1693
     83  C          5.8390   39.3750   -9.5090 C.2    94  LYS94       0.2591
     84  O          5.4760   40.0800   -8.5690 O.2    94  LYS94      -0.2718
     85  CB         5.9940   40.6210  -11.6660 C.3    94  LYS94       0.0285
     86  CG         5.6720   42.0820  -11.3650 C.3    94  LYS94       0.0035
     87  CD         5.3670   42.8710  -12.6430 C.3    94  LYS94       0.0206
     88  CE         5.0730   44.3450  -12.3410 C.3    94  LYS94       0.1093
     89  NZ         4.7570   45.1420  -13.5650 N.3    94  LYS94      -0.1314
     90  N          5.4320   38.1190   -9.6660 N.am   95  GLU95      -0.1979
     91  CA         4.5140   37.4890   -8.7160 C.3    95  GLU95       0.1602
     92  C          5.2020   37.1920   -7.3860 C.2    95  GLU95       0.2287
     93  O          4.5470   36.8190   -6.4100 O.2    95  GLU95      -0.2864
     94  CB         3.9570   36.1760   -9.2930 C.3    95  GLU95       0.0415
     95  CG         3.0550   36.3560  -10.5070 C.3    95  GLU95       0.1163
     96  CD         3.8330   36.4420  -11.7940 C.2    95  GLU95       0.3649
     97  OE1        4.2810   37.5540  -12.1530 O.co2  95  GLU95      -0.2457
     98  OE2        3.9940   35.3900  -12.4460 O.co2  95  GLU95      -0.2457
     99  N          7.5980   39.5010   -6.0040 N.3    97  GLU97      -0.1245
    100  CA         7.8470   40.7680   -5.3420 C.3    97  GLU97       0.1567
    101  C          6.9120   41.0400   -4.2050 C.2    97  GLU97       0.2260
    102  O          5.6910   40.9180   -4.3160 O.2    97  GLU97      -0.2867
    103  CB         7.7420   41.9290   -6.3180 C.3    97  GLU97       0.0388
    104  CG         8.0090   43.3050   -5.6970 C.3    97  GLU97       0.1160
    105  CD         7.8620   44.4280   -6.7220 C.2    97  GLU97       0.3649
    106  OE1        6.9090   44.3670   -7.5300 O.co2  97  GLU97      -0.2457
    107  OE2        8.6980   45.3620   -6.7210 O.co2  97  GLU97      -0.2457
@<TRIPOS>BOND
     1    89    88    1
     2    87    88    1
     3    87    86    1
     4    98    96   ar
     5    97    96   ar
     6    96    95    1
     7    85    86    1
     8    85    82    1
     9    81    82    1
    10    82    83    1
    11    95    94    1
    12    90    83   am
    13    90    91    1
    14    54    53    1
    15    83    84    2
    16    94    91    1
    17    69    67    1
    18    53    55    1
    19    53    52    1
    20    91    92    1
    21    62    63    1
    22    66    63    1
    23    66    67    1
    24    63    64    1
    25    67    68    1
    26    51    50    2
    27    57    58    1
    28    57    56    1
    29    57    60    1
    30    50    49    1
    31   106   105   ar
    32    49    52    1
    33    49    48    1
    34    58    59    2
    35    92    93    2
    36    60    61    1
    37   105   107   ar
    38   105   104    1
    39    64    65    2
    40    64    70   am
    41    30    31    1
    42    30    27    1
    43   103   104    1
    44   103   100    1
    45    48    41   am
    46    99   100    1
    47    70    71    1
    48   100   101    1
    49    41    42    2
    50    41    40    1
    51    27    26    1
    52    27    28    1
    53    19    17   am
    54    18    17    2
    55    73    72    2
    56    26    22   am
    57    71    72    1
    58    71    74    1
    59   102   101    2
    60    28    29    2
    61    17    16    1
    62    40    39    1
    63    40    43    1
    64    24    25    1
    65    24    21    1
    66    77    79   ar
    67    77    75   ar
    68    79    80   ar
    69    74    75    1
    70    75    76   ar
    71    22    23    2
    72    22    21    1
    73    80    78   ar
    74    76    78   ar
    75    44    43    1
    76    44    45    1
    77    21    20    1
    78    20    14   am
    79    16    13    1
    80    11    10   ar
    81    11     9   ar
    82    46    45    1
    83    46    47    1
    84    10     8   ar
    85    14    13    1
    86    14    15    2
    87    13    12    1
    88     9     7   ar
    89     8     6   ar
    90     7     6   ar
    91     6     5    1
    92    38    36    1
    93    37    36    1
    94    36    33    1
    95     5     2    1
    96     3     4    2
    97     3     2    1
    98    33    34    1
    99    33    32    1
   100     2     1    1
   101    35    34    2
