@<TRIPOS>MOLECULE
tmp/1bqiA00.pdb
 114 111 0 0 0
SMALL
GASTEIGER

@<TRIPOS>ATOM
      1  N          2.0620   32.8230  -22.8470 N.3    18  ASN18      -0.1225
      2  CA         1.2990   31.6040  -22.5870 C.3    18  ASN18       0.1785
      3  C          1.2720   31.5580  -21.0820 C.2    18  ASN18       0.2597
      4  O          2.2140   32.0250  -20.4650 O.2    18  ASN18      -0.2718
      5  CB         2.0330   30.3820  -23.1220 C.3    18  ASN18       0.1169
      6  CG         1.2640   29.1070  -22.9090 C.2    18  ASN18       0.2627
      7  OD1        0.5390   28.9450  -21.9230 O.2    18  ASN18      -0.2716
      8  ND2        1.3960   28.1950  -23.8480 N.am   18  ASN18      -0.0877
      9  N          0.2140   31.0520  -20.4640 N.am   19  GLN19      -0.1965
     10  CA         0.2080   31.0400  -19.0060 C.3    19  GLN19       0.1733
     11  C          0.4990   29.6880  -18.3470 C.2    19  GLN19       0.2617
     12  O          0.7910   29.6290  -17.1510 O.2    19  GLN19      -0.2715
     13  CB        -1.0980   31.6340  -18.4690 C.3    19  GLN19       0.0408
     14  CG        -2.3490   30.9530  -18.9720 C.3    19  GLN19       0.0908
     15  CD        -3.5810   31.3370  -18.1710 C.2    19  GLN19       0.2608
     16  OE1       -4.0440   32.4720  -18.2280 O.2    19  GLN19      -0.2717
     17  NE2       -4.1170   30.3910  -17.4130 N.am   19  GLN19      -0.0878
     18  N          0.4200   28.6060  -19.1110 N.am   20  GLY20      -0.1940
     19  CA         0.6580   27.2880  -18.5450 C.3    20  GLY20       0.2014
     20  C         -0.4110   26.9240  -17.5260 C.2    20  GLY20       0.2639
     21  O         -1.3590   27.6770  -17.3170 O.2    20  GLY20      -0.2714
     22  N         -0.2550   25.7770  -16.8740 N.am   21  SER21      -0.1949
     23  CA        -1.2230   25.3090  -15.8820 C.3    21  SER21       0.1924
     24  C         -1.7200   26.3320  -14.8620 C.2    21  SER21       0.2314
     25  O         -2.8260   26.2120  -14.3350 O.2    21  SER21      -0.2863
     26  CB        -0.6360   24.1200  -15.1060 C.3    21  SER21       0.2116
     27  OG        -0.4440   23.0260  -15.9950 O.3    21  SER21      -0.2180
     28  N         -3.3820   29.3720  -12.9430 N.3    23  GLY23      -0.1225
     29  CA        -4.5670   30.1930  -13.1160 C.3    23  GLY23       0.1811
     30  C         -4.1370   31.6330  -12.9410 C.2    23  GLY23       0.2280
     31  O         -4.6930   32.3780  -12.1400 O.2    23  GLY23      -0.2866
     32  N         -4.2090   33.9790  -15.3570 N.3    25  CYS25      -0.1235
     33  CA        -4.9360   34.8540  -16.2730 C.3    25  CYS25       0.1677
     34  C         -5.0530   36.3110  -15.8130 C.2    25  CYS25       0.2270
     35  O         -4.6080   37.2320  -16.5090 O.2    25  CYS25      -0.2867
     36  CB        -6.3000   34.2320  -16.5860 C.3    25  CYS25       0.0956
     37  SG        -7.1390   33.4120  -15.1890 S.3    25  CYS25      -0.0801
     38  N        -14.6440   30.6480  -21.0090 N.3   136  ALA136     -0.1231
     39  CA       -13.8600   29.7840  -21.8880 C.3   136  ALA136      0.1694
     40  C        -14.0050   28.3310  -21.5030 C.2   136  ALA136      0.2591
     41  O        -13.4210   27.4440  -22.1290 O.2   136  ALA136     -0.2718
     42  CB       -12.4180   30.1800  -21.8340 C.3   136  ALA136      0.0304
     43  N        -14.7780   28.0930  -20.4510 N.am  137  ALA137     -0.1980
     44  CA       -15.0220   26.7530  -19.9620 C.3   137  ALA137      0.1597
     45  C        -15.5140   25.8540  -21.0880 C.2   137  ALA137      0.2287
     46  O        -15.3730   24.6320  -21.0040 O.2   137  ALA137     -0.2864
     47  CB       -16.0370   26.7920  -18.8540 C.3   137  ALA137      0.0319
     48  N        -12.3210   26.9860  -26.4770 N.3   142  GLN142     -0.1231
     49  CA       -11.1160   26.2010  -26.4110 C.3   142  GLN142      0.1698
     50  C        -10.6630   25.8050  -27.8020 C.2   142  GLN142      0.2592
     51  O         -9.4600   25.7950  -28.0920 O.2   142  GLN142     -0.2718
     52  CB       -11.3820   24.9340  -25.6200 C.3   142  GLN142      0.0381
     53  CG       -11.7030   25.1530  -24.1660 C.3   142  GLN142      0.0905
     54  CD       -11.7940   23.8410  -23.4140 C.2   142  GLN142      0.2608
     55  OE1      -11.5310   22.7680  -23.9770 O.2   142  GLN142     -0.2717
     56  NE2      -12.1590   23.9130  -22.1340 N.am  142  GLN142     -0.0878
     57  N        -11.6210   25.4440  -28.6570 N.am  143  LEU143     -0.1980
     58  CA       -11.3240   24.9950  -30.0170 C.3   143  LEU143      0.1596
     59  C        -11.3470   26.0800  -31.0710 C.2   143  LEU143      0.2287
     60  O        -11.1300   25.7870  -32.2430 O.2   143  LEU143     -0.2864
     61  CB       -12.2870   23.8900  -30.4410 C.3   143  LEU143      0.0297
     62  CG       -12.3740   22.5730  -29.6760 C.3   143  LEU143      0.0022
     63  CD1      -13.2910   21.6520  -30.4450 C.3   143  LEU143      0.0001
     64  CD2      -11.0180   21.9370  -29.5640 C.3   143  LEU143      0.0001
     65  N        -15.1600   33.4090  -16.2690 N.3   158  ASP158     -0.1225
     66  CA       -14.1060   32.8140  -15.4740 C.3   158  ASP158      0.1805
     67  C        -12.7370   33.4070  -15.8290 C.2   158  ASP158      0.2597
     68  O        -12.1450   34.1780  -15.0620 O.2   158  ASP158     -0.2718
     69  CB       -14.1210   31.2880  -15.6620 C.3   158  ASP158      0.1424
     70  CG       -14.2470   30.8330  -17.1270 C.2   158  ASP158      0.3668
     71  OD1      -14.3100   31.6620  -18.0540 O.co2 158  ASP158     -0.2456
     72  OD2      -14.3020   29.6110  -17.3660 O.co2 158  ASP158     -0.2456
     73  N        -12.2860   33.0750  -17.0330 N.am  159  HIS159     -0.1975
     74  CA       -11.0260   33.5080  -17.6270 C.3   159  HIS159      0.1656
     75  C        -10.9640   35.0220  -17.7410 C.2   159  HIS159      0.2291
     76  O        -11.9860   35.6540  -17.9780 O.2   159  HIS159     -0.2864
     77  CB       -10.9880   32.9160  -19.0330 C.3   159  HIS159      0.0771
     78  CG        -9.6390   32.9020  -19.6640 C.ar  159  HIS159      0.0820
     79  ND1       -8.5990   32.1310  -19.1820 N.ar  159  HIS159     -0.2267
     80  CD2       -9.1780   33.5030  -20.7820 C.ar  159  HIS159      0.1154
     81  CE1       -7.5580   32.2580  -19.9810 C.ar  159  HIS159      0.1986
     82  NE2       -7.8830   33.0840  -20.9580 N.ar  159  HIS159     -0.2212
     83  N         -2.8370   32.0560  -24.3540 N.3   177  TRP177     -0.1241
     84  CA        -2.8280   30.6140  -24.5560 C.3   177  TRP177      0.1605
     85  C         -1.8520   30.2680  -25.6520 C.2   177  TRP177      0.2264
     86  O         -1.9370   29.2060  -26.2740 O.2   177  TRP177     -0.2867
     87  CB        -4.2160   30.0910  -24.8820 C.3   177  TRP177      0.0550
     88  CG        -5.1010   30.0780  -23.6850 C.ar  177  TRP177      0.0003
     89  CD1       -4.7740   30.4980  -22.4390 C.ar  177  TRP177      0.0946
     90  CD2       -6.4510   29.5740  -23.5930 C.ar  177  TRP177      0.0152
     91  NE1       -5.8160   30.2910  -21.5760 N.ar  177  TRP177     -0.2442
     92  CE2       -6.8600   29.7220  -22.2600 C.ar  177  TRP177      0.0810
     93  CE3       -7.3420   29.0150  -24.5220 C.ar  177  TRP177      0.0012
     94  CZ2       -8.1260   29.3220  -21.8060 C.ar  177  TRP177      0.0191
     95  CZ3       -8.6050   28.6190  -24.0740 C.ar  177  TRP177      0.0001
     96  CH2       -8.9790   28.7700  -22.7250 C.ar  177  TRP177      0.0015
     97  N         -0.4430   29.5940  -30.8830 N.3   180  GLY180     -0.1210
     98  CA        -0.9760   28.4930  -31.6650 C.3   180  GLY180      0.1956
     99  C         -2.4280   28.2590  -31.3130 C.2   180  GLY180      0.2611
    100  O         -2.9020   27.1280  -31.2630 O.2   180  GLY180     -0.2717
    101  N         -3.1280   29.3460  -31.0380 N.am  181  TRP181     -0.1976
    102  CA        -4.5320   29.2920  -30.6800 C.3   181  TRP181      0.1640
    103  C         -5.1220   30.5480  -31.2490 C.2   181  TRP181      0.2290
    104  O         -4.4990   31.6030  -31.1630 O.2   181  TRP181     -0.2864
    105  CB        -4.6960   29.3070  -29.1720 C.3   181  TRP181      0.0576
    106  CG        -6.1080   29.4360  -28.7470 C.ar  181  TRP181      0.0006
    107  CD1       -6.9710   28.4190  -28.4310 C.ar  181  TRP181      0.0946
    108  CD2       -6.8400   30.6510  -28.5440 C.ar  181  TRP181      0.0152
    109  NE1       -8.1880   28.9310  -28.0370 N.ar  181  TRP181     -0.2442
    110  CE2       -8.1320   30.2980  -28.0990 C.ar  181  TRP181      0.0810
    111  CE3       -6.5180   32.0050  -28.6950 C.ar  181  TRP181      0.0012
    112  CZ2       -9.1090   31.2540  -27.7970 C.ar  181  TRP181      0.0191
    113  CZ3       -7.4990   32.9620  -28.3930 C.ar  181  TRP181      0.0001
    114  CH2       -8.7720   32.5790  -27.9500 C.ar  181  TRP181      0.0015
@<TRIPOS>BOND
     1    60    59    2
     2    98    99    1
     3    98    97    1
     4    99   100    2
     5    99   101   am
     6   103   104    2
     7   103   102    1
     8    59    58    1
     9   101   102    1
    10   102   105    1
    11    63    62    1
    12    61    58    1
    13    61    62    1
    14    58    57    1
    15    62    64    1
    16   105   106    1
    17   106   108   ar
    18   106   107   ar
    19   111   108   ar
    20   111   113   ar
    21    57    50   am
    22   108   110   ar
    23   107   109   ar
    24   113   114   ar
    25   110   109   ar
    26   110   112   ar
    27    51    50    2
    28   114   112   ar
    29    50    49    1
    30    48    49    1
    31    49    52    1
    32    86    85    2
    33    85    84    1
    34    52    53    1
    35    87    84    1
    36    87    88    1
    37    84    83    1
    38    93    95   ar
    39    93    90   ar
    40    53    54    1
    41    95    96   ar
    42    55    54    2
    43     8     6   am
    44    88    90   ar
    45    88    89   ar
    46    90    92   ar
    47    54    56   am
    48     5     6    1
    49     5     2    1
    50     6     7    2
    51     1     2    1
    52    96    94   ar
    53     2     3    1
    54    89    91   ar
    55    92    94   ar
    56    92    91   ar
    57    41    40    2
    58    39    42    1
    59    39    40    1
    60    39    38    1
    61    40    43   am
    62    45    46    2
    63    45    44    1
    64     3     4    2
    65     3     9   am
    66    82    80   ar
    67    82    81   ar
    68    80    78   ar
    69     9    10    1
    70    43    44    1
    71    81    79   ar
    72    44    47    1
    73    78    79   ar
    74    78    77    1
    75    18    19    1
    76    18    11   am
    77    77    74    1
    78    10    13    1
    79    10    11    1
    80    14    13    1
    81    14    15    1
    82    19    20    1
    83    11    12    2
    84    16    15    2
    85    15    17   am
    86    71    70   ar
    87    76    75    2
    88    75    74    1
    89    74    73    1
    90    20    21    2
    91    20    22   am
    92    72    70   ar
    93    70    69    1
    94    73    67   am
    95    22    23    1
    96    36    33    1
    97    36    37    1
    98    35    34    2
    99    33    34    1
   100    33    32    1
   101    65    66    1
   102    27    26    1
   103    23    26    1
   104    23    24    1
   105    67    66    1
   106    67    68    2
   107    69    66    1
   108    24    25    2
   109    29    28    1
   110    29    30    1
   111    30    31    2
