@<TRIPOS>MOLECULE
tmp/1bqoB00.pdb
 193 196 0 0 0
SMALL
GASTEIGER

@<TRIPOS>ATOM
      1  N        -10.6360   56.9860   54.3630 N.3     4  PHE4       -0.1241
      2  CA       -10.6250   57.0310   52.8860 C.3     4  PHE4        0.1605
      3  C        -11.4720   58.1380   52.2480 C.2     4  PHE4        0.2264
      4  O        -12.4950   58.5400   52.7930 O.2     4  PHE4       -0.2867
      5  CB       -11.0620   55.6890   52.2980 C.3     4  PHE4        0.0534
      6  CG       -10.0110   54.6190   52.3620 C.ar    4  PHE4       -0.0203
      7  CD1       -8.9370   54.6140   51.4660 C.ar    4  PHE4       -0.0042
      8  CD2      -10.1290   53.5700   53.2650 C.ar    4  PHE4       -0.0042
      9  CE1       -8.0080   53.5730   51.4750 C.ar    4  PHE4       -0.0003
     10  CE2       -9.2000   52.5300   53.2750 C.ar    4  PHE4       -0.0003
     11  CZ        -8.1470   52.5320   52.3820 C.ar    4  PHE4       -0.0000
     12  N         10.1910   47.1220   49.1980 N.3    80  ASN80      -0.1225
     13  CA         9.2660   48.2350   49.0470 C.3    80  ASN80       0.1785
     14  C          7.8410   47.8140   49.4020 C.2    80  ASN80       0.2597
     15  O          7.6050   47.3820   50.5260 O.2    80  ASN80      -0.2718
     16  CB         9.3660   48.8090   47.6320 C.3    80  ASN80       0.1169
     17  CG        10.7340   49.3920   47.3500 C.2    80  ASN80       0.2627
     18  OD1       11.5860   48.7530   46.7370 O.2    80  ASN80      -0.2716
     19  ND2       10.9640   50.6030   47.8290 N.am   80  ASN80      -0.0877
     20  N          6.9160   47.8720   48.4440 N.am   81  VAL81      -0.1966
     21  CA         5.5240   47.4810   48.7180 C.3    81  VAL81       0.1727
     22  C          5.4480   46.0210   49.1620 C.2    81  VAL81       0.2616
     23  O          5.8590   45.1140   48.4340 O.2    81  VAL81      -0.2715
     24  CB         4.6090   47.7020   47.4770 C.3    81  VAL81       0.0290
     25  CG1        3.1770   47.2210   47.7420 C.3    81  VAL81       0.0023
     26  CG2        4.5990   49.1860   47.1030 C.3    81  VAL81       0.0023
     27  N          5.0160   45.8190   50.3990 N.am   82  LEU82      -0.1963
     28  CA         4.8730   44.4850   50.9810 C.3    82  LEU82       0.1728
     29  C          3.4640   43.9090   50.7760 C.2    82  LEU82       0.2616
     30  O          3.3010   42.7070   50.6130 O.2    82  LEU82      -0.2715
     31  CB         5.1770   44.5270   52.4860 C.3    82  LEU82       0.0311
     32  CG         6.4830   45.1900   52.9520 C.3    82  LEU82       0.0022
     33  CD1        6.5620   45.1440   54.4700 C.3    82  LEU82       0.0001
     34  CD2        7.6930   44.5250   52.3090 C.3    82  LEU82       0.0001
     35  N          2.4480   44.7700   50.8080 N.am   83  ALA83      -0.1963
     36  CA         1.0640   44.3310   50.6290 C.3    83  ALA83       0.1728
     37  C          0.1150   45.5000   50.3880 C.2    83  ALA83       0.2616
     38  O          0.4710   46.6470   50.6100 O.2    83  ALA83      -0.2715
     39  CB         0.6110   43.5530   51.8450 C.3    83  ALA83       0.0334
     40  N         -1.0630   45.2140   49.8500 N.am   84  HIS84      -0.1959
     41  CA        -2.0560   46.2630   49.6270 C.3    84  HIS84       0.1787
     42  C         -3.4950   45.7400   49.7130 C.2    84  HIS84       0.2620
     43  O         -3.8140   44.6400   49.2320 O.2    84  HIS84      -0.2715
     44  CB        -1.8100   47.0440   48.3170 C.3    84  HIS84       0.0785
     45  CG        -1.9570   46.2310   47.0690 C.ar   84  HIS84       0.0821
     46  ND1       -1.3140   46.5630   45.8940 N.ar   84  HIS84      -0.2267
     47  CD2       -2.6560   45.1010   46.8100 C.ar   84  HIS84       0.1154
     48  CE1       -1.6080   45.6680   44.9650 C.ar   84  HIS84       0.1986
     49  NE2       -2.4210   44.7680   45.4940 N.ar   84  HIS84      -0.2212
     50  N         -4.3550   46.5450   50.3240 N.am   85  ALA85      -0.1963
     51  CA        -5.7540   46.2030   50.5050 C.3    85  ALA85       0.1728
     52  C         -6.6670   47.3000   49.9460 C.2    85  ALA85       0.2616
     53  O         -6.2510   48.4520   49.7900 O.2    85  ALA85      -0.2715
     54  CB        -6.0350   45.9710   51.9780 C.3    85  ALA85       0.0334
     55  N         -7.9250   46.9420   49.6920 N.am   86  TYR86      -0.1960
     56  CA        -8.9220   47.8670   49.1310 C.3    86  TYR86       0.1771
     57  C         -9.9670   48.3380   50.1340 C.2    86  TYR86       0.2619
     58  O        -10.4050   47.5820   51.0030 O.2    86  TYR86      -0.2715
     59  CB        -9.6530   47.2160   47.9550 C.3    86  TYR86       0.0574
     60  CG        -8.7460   46.9450   46.7990 C.ar   86  TYR86      -0.0198
     61  CD1       -8.5350   47.9140   45.8300 C.ar   86  TYR86      -0.0009
     62  CD2       -8.0450   45.7530   46.7040 C.ar   86  TYR86      -0.0009
     63  CE1       -7.6310   47.7070   44.7870 C.ar   86  TYR86       0.0417
     64  CE2       -7.1340   45.5300   45.6600 C.ar   86  TYR86       0.0417
     65  CZ        -6.9370   46.5140   44.7140 C.ar   86  TYR86       0.1957
     66  OH        -6.0340   46.3250   43.7070 O.3    86  TYR86      -0.2866
     67  N        -10.4210   49.5730   49.9730 N.am   87  ALA87      -0.1977
     68  CA       -11.4360   50.1140   50.8770 C.3    87  ALA87       0.1597
     69  C        -12.7270   49.2860   50.8090 C.2    87  ALA87       0.2287
     70  O        -12.9490   48.5200   49.8690 O.2    87  ALA87      -0.2864
     71  CB       -11.7090   51.5910   50.5410 C.3    87  ALA87       0.0319
     72  N          1.5750   41.3600   61.5750 N.3   115  LEU115     -0.1231
     73  CA         1.7060   42.8030   61.6380 C.3   115  LEU115      0.1693
     74  C          1.1550   43.5240   60.4060 C.2   115  LEU115      0.2591
     75  O          0.3740   44.4750   60.5110 O.2   115  LEU115     -0.2718
     76  CB         3.1760   43.1500   61.8580 C.3   115  LEU115      0.0284
     77  CG         3.5400   44.4910   62.4770 C.3   115  LEU115      0.0019
     78  CD1        2.8570   44.6500   63.8400 C.3   115  LEU115      0.0001
     79  CD2        5.0540   44.5200   62.6300 C.3   115  LEU115      0.0001
     80  N          1.5290   43.0280   59.2360 N.am  116  VAL116     -0.1980
     81  CA         1.0860   43.6280   57.9860 C.3   116  VAL116      0.1595
     82  C         -0.3980   43.3770   57.7350 C.2   116  VAL116      0.2287
     83  O         -1.1260   44.2530   57.2650 O.2   116  VAL116     -0.2864
     84  CB         1.9010   43.0720   56.8110 C.3   116  VAL116      0.0276
     85  CG1        1.4970   43.7510   55.5130 C.3   116  VAL116      0.0022
     86  CG2        3.3700   43.2760   57.0890 C.3   116  VAL116      0.0022
     87  N         -2.5920   45.7490   59.5320 N.3   119  HIS119     -0.1226
     88  CA        -2.5470   47.0330   58.8490 C.3   119  HIS119      0.1752
     89  C         -3.4610   46.9810   57.6060 C.2   119  HIS119      0.2595
     90  O         -4.2200   47.9110   57.3420 O.2   119  HIS119     -0.2718
     91  CB        -1.1040   47.3390   58.4390 C.3   119  HIS119      0.0759
     92  CG        -0.9330   48.6250   57.6960 C.ar  119  HIS119      0.0818
     93  ND1       -0.6100   49.8090   58.3170 N.ar  119  HIS119     -0.2268
     94  CD2       -1.0490   48.9140   56.3760 C.ar  119  HIS119      0.1154
     95  CE1       -0.5280   50.7730   57.4180 C.ar  119  HIS119      0.1986
     96  NE2       -0.7910   50.2570   56.2320 N.ar  119  HIS119     -0.2212
     97  N         -3.4080   45.8740   56.8680 N.am  120  GLU120     -0.1979
     98  CA        -4.2350   45.7160   55.6720 C.3   120  GLU120      0.1602
     99  C         -5.7310   45.6200   55.9660 C.2   120  GLU120      0.2287
    100  O         -6.5500   46.2810   55.3240 O.2   120  GLU120     -0.2864
    101  CB        -3.7830   44.5000   54.8640 C.3   120  GLU120      0.0415
    102  CG        -2.3720   44.6300   54.3440 C.3   120  GLU120      0.1163
    103  CD        -2.0970   45.9940   53.7210 C.2   120  GLU120      0.3649
    104  OE1       -2.8480   46.4350   52.8160 O.co2 120  GLU120     -0.2457
    105  OE2       -1.1260   46.6340   54.1570 O.co2 120  GLU120     -0.2457
    106  N         -7.2950   48.7140   56.3230 N.3   123  HIS123     -0.1241
    107  CA        -7.6990   49.2820   55.0420 C.3   123  HIS123      0.1621
    108  C         -9.0190   48.6670   54.5960 C.2   123  HIS123      0.2264
    109  O         -9.9200   49.3780   54.1770 O.2   123  HIS123     -0.2867
    110  CB        -6.6270   49.0310   53.9720 C.3   123  HIS123      0.0745
    111  CG        -5.3980   49.8620   54.1450 C.ar  123  HIS123      0.0817
    112  ND1       -5.4490   51.2320   54.2640 N.ar  123  HIS123     -0.2268
    113  CD2       -4.0850   49.5270   54.2070 C.ar  123  HIS123      0.1154
    114  CE1       -4.2260   51.7110   54.3930 C.ar  123  HIS123      0.1986
    115  NE2       -3.3770   50.6960   54.3590 N.ar  123  HIS123     -0.2212
    116  N         -7.2900   54.6970   56.4280 N.3   128  PHE128     -0.1227
    117  CA        -6.2540   55.0850   55.5030 C.3   128  PHE128      0.1736
    118  C         -4.9820   55.2820   56.3390 C.2   128  PHE128      0.2595
    119  O         -4.9590   54.9620   57.5310 O.2   128  PHE128     -0.2718
    120  CB        -6.6850   56.3740   54.7930 C.3   128  PHE128      0.0547
    121  CG        -5.8000   56.7770   53.6580 C.ar  128  PHE128     -0.0202
    122  CD1       -5.4430   55.8530   52.6740 C.ar  128  PHE128     -0.0042
    123  CD2       -5.2950   58.0720   53.5860 C.ar  128  PHE128     -0.0042
    124  CE1       -4.5880   56.2180   51.6350 C.ar  128  PHE128     -0.0003
    125  CE2       -4.4420   58.4510   52.5570 C.ar  128  PHE128     -0.0003
    126  CZ        -4.0850   57.5200   51.5740 C.ar  128  PHE128     -0.0000
    127  N         -3.9110   55.7550   55.7150 N.am  129  HIS129     -0.1975
    128  CA        -2.6800   55.9850   56.4570 C.3   129  HIS129      0.1656
    129  C         -2.7880   57.1360   57.4660 C.2   129  HIS129      0.2291
    130  O         -3.3390   58.2090   57.1810 O.2   129  HIS129     -0.2864
    131  CB        -1.5100   56.1860   55.4940 C.3   129  HIS129      0.0771
    132  CG        -1.1740   54.9610   54.6980 C.ar  129  HIS129      0.0820
    133  ND1       -0.8050   55.0100   53.3690 N.ar  129  HIS129     -0.2267
    134  CD2       -1.1410   53.6550   55.0480 C.ar  129  HIS129      0.1154
    135  CE1       -0.5610   53.7850   52.9350 C.ar  129  HIS129      0.1986
    136  NE2       -0.7590   52.9420   53.9330 N.ar  129  HIS129     -0.2212
    137  N         -0.6500   51.7480   64.1690 N.3   136  LEU136     -0.1245
    138  CA        -0.5320   50.6390   63.2230 C.3   136  LEU136      0.1561
    139  C         -0.7700   51.1120   61.7960 C.2   136  LEU136      0.2260
    140  O         -0.1620   50.5930   60.8550 O.2   136  LEU136     -0.2867
    141  CB        -1.5520   49.5460   63.5550 C.3   136  LEU136      0.0270
    142  CG        -1.6280   48.3800   62.5700 C.3   136  LEU136      0.0019
    143  CD1       -0.3270   47.6300   62.5570 C.3   136  LEU136      0.0001
    144  CD2       -2.7630   47.4600   62.9550 C.3   136  LEU136      0.0001
    145  N          0.1470   53.7500   60.3530 N.3   138  TYR138     -0.1228
    146  CA         1.2040   54.6210   59.8530 C.3   138  TYR138      0.1721
    147  C          1.9440   53.6960   58.8580 C.2   138  TYR138      0.2437
    148  O          2.2950   52.5680   59.2000 O.2   138  TYR138     -0.2733
    149  CB         2.0960   55.0370   61.0320 C.3   138  TYR138      0.0547
    150  CG         3.2040   55.9980   60.7070 C.ar  138  TYR138     -0.0200
    151  CD1        2.9270   57.2890   60.2730 C.ar  138  TYR138     -0.0009
    152  CD2        4.5310   55.6150   60.8410 C.ar  138  TYR138     -0.0009
    153  CE1        3.9530   58.1850   59.9720 C.ar  138  TYR138      0.0417
    154  CE2        5.5650   56.5010   60.5440 C.ar  138  TYR138      0.0417
    155  CZ         5.2680   57.7790   60.1110 C.ar  138  TYR138      0.1957
    156  OH         6.2970   58.6320   59.8060 O.3   138  TYR138     -0.2866
    157  N          2.1760   54.1450   57.6120 N.am  139  PRO139     -0.2718
    158  CA         2.8510   53.2980   56.6170 C.3   139  PRO139      0.1535
    159  C          4.3350   52.9760   56.7860 C.2   139  PRO139      0.2598
    160  O          5.0870   52.9900   55.8090 O.2   139  PRO139     -0.2715
    161  CB         2.5910   54.0460   55.3120 C.3   139  PRO139      0.0310
    162  CG         2.6780   55.4570   55.7450 C.3   139  PRO139      0.0237
    163  CD         1.8560   55.4630   57.0290 C.3   139  PRO139      0.0939
    164  N          4.7540   52.6130   57.9930 N.am  140  LEU140     -0.1964
    165  CA         6.1510   52.2920   58.1960 C.3   140  LEU140      0.1728
    166  C          6.3060   50.9060   58.8140 C.2   140  LEU140      0.2616
    167  O          5.8230   50.6620   59.9140 O.2   140  LEU140     -0.2715
    168  CB         6.7920   53.3540   59.0920 C.3   140  LEU140      0.0311
    169  CG         8.2600   53.7270   58.8790 C.3   140  LEU140      0.0022
    170  CD1        9.1570   52.4950   59.0400 C.3   140  LEU140      0.0001
    171  CD2        8.4260   54.3590   57.4920 C.3   140  LEU140      0.0001
    172  N          6.9230   49.9680   58.1020 N.am  141  TYR141     -0.1960
    173  CA         7.1020   48.6520   58.7070 C.3   141  TYR141      0.1771
    174  C          8.2760   48.7920   59.6690 C.2   141  TYR141      0.2619
    175  O          9.4230   48.9380   59.2490 O.2   141  TYR141     -0.2715
    176  CB         7.3620   47.5580   57.6660 C.3   141  TYR141      0.0574
    177  CG         7.5200   46.1870   58.2780 C.ar  141  TYR141     -0.0198
    178  CD1        6.4110   45.4070   58.6010 C.ar  141  TYR141     -0.0009
    179  CD2        8.7800   45.6840   58.5680 C.ar  141  TYR141     -0.0009
    180  CE1        6.5640   44.1430   59.2070 C.ar  141  TYR141      0.0417
    181  CE2        8.9430   44.4340   59.1670 C.ar  141  TYR141      0.0417
    182  CZ         7.8390   43.6740   59.4840 C.ar  141  TYR141      0.1957
    183  OH         8.0470   42.4650   60.0880 O.3   141  TYR141     -0.2866
    184  N          7.9930   48.7390   60.9590 N.am  142  HIS142     -0.1973
    185  CA         9.0380   48.9310   61.9560 C.3   142  HIS142      0.1656
    186  C         10.1100   47.8810   62.1960 C.2   142  HIS142      0.2291
    187  O          9.8500   46.6760   62.2520 O.2   142  HIS142     -0.2864
    188  CB         8.4330   49.3550   63.2900 C.3   142  HIS142      0.0771
    189  CG         7.8610   50.7320   63.2600 C.ar  142  HIS142      0.0820
    190  ND1        8.6600   51.8580   63.2790 N.ar  142  HIS142     -0.2267
    191  CD2        6.5900   51.1710   63.1490 C.ar  142  HIS142      0.1154
    192  CE1        7.8940   52.9320   63.1780 C.ar  142  HIS142      0.1986
    193  NE2        6.6360   52.5430   63.0950 N.ar  142  HIS142     -0.2212
@<TRIPOS>BOND
     1    66    65    1
     2    65    63   ar
     3    65    64   ar
     4    63    61   ar
     5    48    49   ar
     6    48    46   ar
     7    49    47   ar
     8    64    62   ar
     9    61    60   ar
    10    46    45   ar
    11    62    60   ar
    12    18    17    2
    13    60    59    1
    14    47    45   ar
    15    45    44    1
    16    26    24    1
    17    17    16    1
    18    17    19   am
    19    24    25    1
    20    24    21    1
    21    16    13    1
    22    59    56    1
    23    44    41    1
    24    23    22    2
    25    20    21    1
    26    20    14   am
    27    21    22    1
    28    13    12    1
    29    13    14    1
    30    56    55    1
    31    56    57    1
    32    22    27   am
    33    43    42    2
    34    14    15    2
    35    41    42    1
    36    41    40    1
    37    55    52   am
    38    42    50   am
    39    53    52    2
    40    40    37   am
    41    70    69    2
    42    52    51    1
    43    67    57   am
    44    67    68    1
    45    57    58    2
    46    50    51    1
    47    37    38    2
    48    37    36    1
    49    27    28    1
    50    51    54    1
    51    71    68    1
    52    30    29    2
    53    36    35    1
    54    36    39    1
    55    29    35   am
    56    29    28    1
    57    69    68    1
    58    28    31    1
    59     7     9   ar
    60     7     6   ar
    61     9    11   ar
    62   126   124   ar
    63   126   125   ar
    64   124   122   ar
    65     3     4    2
    66     3     2    1
    67     5     6    1
    68     5     2    1
    69    34    32    1
    70     6     8   ar
    71    11    10   ar
    72    31    32    1
    73   125   123   ar
    74   122   121   ar
    75   104   103   ar
    76     2     1    1
    77   135   133   ar
    78   135   136   ar
    79    32    33    1
    80     8    10   ar
    81   133   132   ar
    82   123   121   ar
    83   121   120    1
    84   103   105   ar
    85   103   102    1
    86   136   134   ar
    87   110   111    1
    88   110   107    1
    89   111   113   ar
    90   111   112   ar
    91   109   108    2
    92   113   115   ar
    93   112   114   ar
    94   102   101    1
    95   115   114   ar
    96   108   107    1
    97   132   134   ar
    98   132   131    1
    99   120   117    1
   100   101    98    1
   101   107   106    1
   102   161   162    1
   103   161   158    1
   104   100    99    2
   105   131   128    1
   106   117   118    1
   107   117   116    1
   108    85    84    1
   109    98    99    1
   110    98    97    1
   111   127   118   am
   112   127   128    1
   113   162   163    1
   114   160   159    2
   115    96    94   ar
   116    96    95   ar
   117   118   119    2
   118    94    92   ar
   119   128   129    1
   120   158   159    1
   121   158   157    1
   122   159   164   am
   123    84    86    1
   124    84    81    1
   125    97    89   am
   126   163   157    1
   127   130   129    2
   128    83    82    2
   129    90    89    2
   130    95    93   ar
   131   171   169    1
   132    89    88    1
   133   157   147   am
   134   176   177    1
   135   176   173    1
   136    92    93   ar
   137    92    91    1
   138    82    81    1
   139    81    80    1
   140   164   165    1
   141   172   173    1
   142   172   166   am
   143   165   166    1
   144   165   168    1
   145   177   179   ar
   146   177   178   ar
   147    91    88    1
   148   179   181   ar
   149   178   180   ar
   150   173   174    1
   151   166   167    2
   152    88    87    1
   153   147   148    2
   154   147   146    1
   155   169   170    1
   156   169   168    1
   157   181   182   ar
   158   180   182   ar
   159    80    74   am
   160   175   174    2
   161   182   183    1
   162   174   184   am
   163   156   155    1
   164   146   145    1
   165   146   149    1
   166   153   155   ar
   167   153   151   ar
   168   155   154   ar
   169   151   150   ar
   170    74    75    2
   171    74    73    1
   172   154   152   ar
   173   150   152   ar
   174   150   149    1
   175   140   139    2
   176   184   185    1
   177    72    73    1
   178    73    76    1
   179   139   138    1
   180    76    77    1
   181   185   186    1
   182   185   188    1
   183   186   187    2
   184    77    79    1
   185    77    78    1
   186   143   142    1
   187   142   144    1
   188   142   141    1
   189   193   191   ar
   190   193   192   ar
   191   191   189   ar
   192   192   190   ar
   193   138   141    1
   194   138   137    1
   195   189   190   ar
   196   189   188    1
