@<TRIPOS>MOLECULE
tmp/1bqyA00.pdb
 168 168 0 0 0
SMALL
GASTEIGER

@<TRIPOS>ATOM
      1  N         20.3740   39.2910   69.0950 N.3    25  LEU25      -0.1231
      2  CA        21.2420   39.4190   67.9290 C.3    25  LEU25       0.1693
      3  C         20.5850   38.9790   66.6370 C.2    25  LEU25       0.2592
      4  O         20.5240   39.7460   65.6740 O.2    25  LEU25      -0.2718
      5  CB        22.5220   38.5980   68.0920 C.3    25  LEU25       0.0284
      6  CG        23.5560   38.8950   69.1720 C.3    25  LEU25       0.0019
      7  CD1       24.6510   37.8550   69.0480 C.3    25  LEU25       0.0001
      8  CD2       24.1310   40.3070   69.0170 C.3    25  LEU25       0.0001
      9  N         20.1150   37.7360   66.6150 N.am   26  CYS26      -0.1970
     10  CA        19.5110   37.1620   65.4160 C.3    26  CYS26       0.1712
     11  C         18.7230   35.9190   65.7390 C.2    26  CYS26       0.2296
     12  O         18.6700   35.4800   66.8890 O.2    26  CYS26      -0.2864
     13  CB        20.5970   36.7010   64.4460 C.3    26  CYS26       0.0983
     14  SG        21.5000   37.9580   63.5080 S.3    26  CYS26      -0.0798
     15  N         26.7380   36.7680   59.2040 N.3    41  HIS41      -0.1241
     16  CA        26.8310   38.1450   59.7120 C.3    41  HIS41       0.1621
     17  C         26.2970   38.3520   61.1430 C.2    41  HIS41       0.2264
     18  O         26.4620   39.4280   61.7240 O.2    41  HIS41      -0.2867
     19  CB        26.2390   39.1700   58.7040 C.3    41  HIS41       0.0745
     20  CG        24.7470   39.3490   58.7780 C.ar   41  HIS41       0.0817
     21  ND1       23.8400   38.7180   57.9480 N.ar   41  HIS41      -0.2268
     22  CD2       24.0080   40.1830   59.5490 C.ar   41  HIS41       0.1154
     23  CE1       22.6110   39.1860   58.2250 C.ar   41  HIS41       0.1986
     24  NE2       22.6640   40.0790   59.1920 N.ar   41  HIS41      -0.2212
     25  N         30.2780   41.4770   54.1980 N.3    82  GLU82      -0.1231
     26  CA        29.5880   40.8770   55.3400 C.3    82  GLU82       0.1699
     27  C         28.4890   39.8500   55.0040 C.2    82  GLU82       0.2592
     28  O         28.2360   38.9210   55.7750 O.2    82  GLU82      -0.2718
     29  CB        29.0420   42.0280   56.1910 C.3    82  GLU82       0.0402
     30  CG        28.0860   41.6780   57.3020 C.3    82  GLU82       0.1161
     31  CD        27.4450   42.9280   57.8820 C.2    82  GLU82       0.3649
     32  OE1       28.1920   43.7170   58.5110 O.co2  82  GLU82      -0.2457
     33  OE2       26.2170   43.1360   57.6810 O.co2  82  GLU82      -0.2457
     34  N         27.8310   40.0240   53.8630 N.am   83  VAL83      -0.1980
     35  CA        26.7730   39.1100   53.4510 C.3    83  VAL83       0.1595
     36  C         27.1860   38.1460   52.3410 C.2    83  VAL83       0.2287
     37  O         26.3320   37.6140   51.6350 O.2    83  VAL83      -0.2864
     38  CB        25.4800   39.8480   53.0230 C.3    83  VAL83       0.0276
     39  CG1       24.9080   40.6100   54.1850 C.3    83  VAL83       0.0022
     40  CG2       25.7380   40.7690   51.8400 C.3    83  VAL83       0.0022
     41  N         23.6440   47.7700   41.7980 N.3   156  TRP156     -0.1227
     42  CA        24.8980   48.3520   42.2850 C.3   156  TRP156      0.1737
     43  C         25.8440   47.3310   42.9220 C.2   156  TRP156      0.2595
     44  O         27.0170   47.6340   43.1570 O.2   156  TRP156     -0.2718
     45  CB        24.6180   49.5010   43.2660 C.3   156  TRP156      0.0564
     46  CG        23.5680   49.1880   44.2940 C.ar  156  TRP156      0.0003
     47  CD1       22.2130   49.3920   44.1800 C.ar  156  TRP156      0.0946
     48  CD2       23.7770   48.5950   45.5790 C.ar  156  TRP156      0.0152
     49  NE1       21.5730   48.9560   45.3130 N.ar  156  TRP156     -0.2442
     50  CE2       22.5070   48.4580   46.1890 C.ar  156  TRP156      0.0810
     51  CE3       24.9140   48.1600   46.2750 C.ar  156  TRP156      0.0012
     52  CZ2       22.3430   47.9020   47.4690 C.ar  156  TRP156      0.0191
     53  CZ3       24.7510   47.6070   47.5460 C.ar  156  TRP156      0.0001
     54  CH2       23.4740   47.4830   48.1290 C.ar  156  TRP156      0.0015
     55  N         25.3340   46.1390   43.2170 N.am  157  ARG157     -0.1980
     56  CA        26.1440   45.0940   43.8140 C.3   157  ARG157      0.1597
     57  C         25.7700   43.7610   43.1960 C.2   157  ARG157      0.2287
     58  O         24.8070   43.6660   42.4300 O.2   157  ARG157     -0.2864
     59  CB        25.9460   45.0540   45.3270 C.3   157  ARG157      0.0334
     60  CG        24.5400   44.7260   45.7690 C.3   157  ARG157      0.0492
     61  CD        24.5140   43.4510   46.6060 C.3   157  ARG157      0.2205
     62  NE        25.1630   43.5890   47.9110 N.pl3 157  ARG157     -0.0865
     63  CZ        25.9880   42.6880   48.4430 C.cat 157  ARG157      0.5346
     64  NH1       26.2910   41.5690   47.8000 N.pl3 157  ARG157      0.1354
     65  NH2       26.4910   42.8950   49.6460 N.pl3 157  ARG157      0.1354
     66  N          7.9410   41.8200   54.2460 N.3   174  ASP174     -0.1225
     67  CA         9.3660   41.5720   54.0350 C.3   174  ASP174      0.1805
     68  C         10.0410   41.3620   55.3810 C.2   174  ASP174      0.2598
     69  O          9.4900   41.7610   56.4000 O.2   174  ASP174     -0.2718
     70  CB         9.9610   42.8420   53.3910 C.3   174  ASP174      0.1424
     71  CG        11.4200   42.6900   52.9790 C.2   174  ASP174      0.3668
     72  OD1       11.9310   41.5510   52.9490 O.co2 174  ASP174     -0.2456
     73  OD2       12.0530   43.7210   52.6530 O.co2 174  ASP174     -0.2456
     74  N         11.1990   40.7020   55.4040 N.am  175  THR175     -0.1939
     75  CA        11.9480   40.5580   56.6570 C.3   175  THR175      0.2028
     76  C         12.6970   41.8850   56.8690 C.2   175  THR175      0.2642
     77  O         13.0000   42.6100   55.9080 O.2   175  THR175     -0.2714
     78  CB        12.9750   39.4060   56.6340 C.3   175  THR175      0.1808
     79  OG1       13.7570   39.4700   55.4360 O.3   175  THR175     -0.2208
     80  CG2       12.2900   38.0630   56.7490 C.3   175  THR175      0.0379
     81  N         13.0240   42.1960   58.1130 N.am  176  CYS176     -0.1953
     82  CA        13.6930   43.4450   58.4010 C.3   176  CYS176      0.1843
     83  C         14.8490   43.2380   59.3510 C.2   176  CYS176      0.2625
     84  O         15.1710   42.1050   59.7190 O.2   176  CYS176     -0.2714
     85  CB        12.6950   44.4200   59.0150 C.3   176  CYS176      0.0997
     86  SG        11.1930   44.6970   58.0230 S.3   176  CYS176     -0.0797
     87  N         15.4670   44.3440   59.7510 N.am  177  HIS177     -0.1959
     88  CA        16.5950   44.3100   60.6660 C.3   177  HIS177      0.1787
     89  C         16.2420   43.4810   61.9000 C.2   177  HIS177      0.2620
     90  O         15.1610   43.6340   62.4860 O.2   177  HIS177     -0.2715
     91  CB        17.0040   45.7370   61.0590 C.3   177  HIS177      0.0785
     92  CG        18.3180   45.8270   61.7750 C.ar  177  HIS177      0.0821
     93  ND1       19.4810   45.2710   61.2780 N.ar  177  HIS177     -0.2267
     94  CD2       18.6530   46.4100   62.9520 C.ar  177  HIS177      0.1154
     95  CE1       20.4730   45.5060   62.1200 C.ar  177  HIS177      0.1986
     96  NE2       19.9960   46.1950   63.1430 N.ar  177  HIS177     -0.2212
     97  N         17.1570   42.5760   62.2380 N.am  178  PHE178     -0.1974
     98  CA        17.0530   41.6630   63.3650 C.3   178  PHE178      0.1639
     99  C         16.2640   40.4020   63.0690 C.2   178  PHE178      0.2290
    100  O         16.0320   39.5960   63.9660 O.2   178  PHE178     -0.2864
    101  CB        16.5580   42.3610   64.6350 C.3   178  PHE178      0.0560
    102  CG        17.6400   43.1040   65.3690 C.ar  178  PHE178     -0.0200
    103  CD1       18.7850   42.4420   65.7960 C.ar  178  PHE178     -0.0042
    104  CD2       17.5280   44.4610   65.6140 C.ar  178  PHE178     -0.0042
    105  CE1       19.7960   43.1190   66.4510 C.ar  178  PHE178     -0.0003
    106  CE2       18.5360   45.1470   66.2680 C.ar  178  PHE178     -0.0003
    107  CZ        19.6720   44.4730   66.6860 C.ar  178  PHE178     -0.0000
    108  N         17.3660   38.5160   60.6090 N.3   180  SER180     -0.1217
    109  CA        18.4590   37.7200   60.0620 C.3   180  SER180      0.1889
    110  C         18.6840   36.3800   60.7380 C.2   180  SER180      0.2288
    111  O         18.4060   36.2270   61.9310 O.2   180  SER180     -0.2866
    112  CB        19.7430   38.5300   60.1050 C.3   180  SER180      0.2089
    113  OG        19.6420   39.6310   59.2320 O.3   180  SER180     -0.2183
    114  N         17.3850   34.0050   56.2120 N.3   194  VAL194     -0.1231
    115  CA        17.2810   35.4660   56.0260 C.3   194  VAL194      0.1692
    116  C         18.6930   36.1100   55.9870 C.2   194  VAL194      0.2593
    117  O         19.4530   35.9960   56.9550 O.2   194  VAL194     -0.2718
    118  CB        16.4510   36.1410   57.1640 C.3   194  VAL194      0.0266
    119  CG1       16.3070   37.6310   56.8960 C.3   194  VAL194      0.0020
    120  CG2       15.0810   35.4820   57.3180 C.3   194  VAL194      0.0020
    121  N         19.0250   36.7910   54.8860 N.am  195  SER195     -0.1938
    122  CA        20.3440   37.4100   54.7210 C.3   195  SER195      0.2055
    123  C         20.3450   38.9470   54.6120 C.2   195  SER195      0.2643
    124  O         20.9080   39.6210   55.4810 O.2   195  SER195     -0.2714
    125  CB        21.0620   36.7810   53.5230 C.3   195  SER195      0.2130
    126  OG        22.4360   37.1100   53.4930 O.3   195  SER195     -0.2179
    127  N         19.7370   39.5130   53.5670 N.am  196  TRP196     -0.1959
    128  CA        19.7040   40.9760   53.4170 C.3   196  TRP196      0.1775
    129  C         18.5970   41.5070   52.4990 C.2   196  TRP196      0.2659
    130  O         17.7840   40.7220   52.0080 O.2   196  TRP196     -0.2711
    131  CB        21.0720   41.5130   52.9930 C.3   196  TRP196      0.0591
    132  CG        21.5750   41.0060   51.6770 C.ar  196  TRP196      0.0006
    133  CD1       22.2980   39.8670   51.4520 C.ar  196  TRP196      0.0946
    134  CD2       21.4300   41.6470   50.4020 C.ar  196  TRP196      0.0152
    135  NE1       22.6140   39.7630   50.1180 N.ar  196  TRP196     -0.2442
    136  CE2       22.0920   40.8400   49.4500 C.ar  196  TRP196      0.0810
    137  CE3       20.8080   42.8320   49.9710 C.ar  196  TRP196      0.0012
    138  CZ2       22.1470   41.1760   48.0980 C.ar  196  TRP196      0.0191
    139  CZ3       20.8640   43.1610   48.6360 C.ar  196  TRP196      0.0001
    140  CH2       21.5280   42.3380   47.7130 C.ar  196  TRP196      0.0015
    141  N         18.5460   42.8340   52.3080 N.am  197  GLY197     -0.1716
    142  CA        17.5210   43.4450   51.4640 C.2   197  GLY197      0.1480
    143  C         17.5480   44.9660   51.3130 C.2   197  GLY197      0.2821
    144  O         18.6100   45.5900   51.4120 O.2   197  GLY197     -0.2669
    145  N         16.3740   45.5540   51.0810 N.am  198  GLY198     -0.1905
    146  CA        16.2620   46.9920   50.9090 C.3   198  GLY198      0.2017
    147  C         16.3000   47.8600   52.1610 C.2   198  GLY198      0.2639
    148  O         16.3190   47.3500   53.2880 O.2   198  GLY198     -0.2714
    149  N         16.2470   49.1800   51.9450 N.am  199  HIS199     -0.1973
    150  CA        16.2890   50.2100   52.9950 C.3   199  HIS199      0.1656
    151  C         15.1760   51.2580   52.8900 C.2   199  HIS199      0.2291
    152  O         15.3000   52.2220   52.1310 O.2   199  HIS199     -0.2864
    153  CB        17.6060   50.9750   52.9150 C.3   199  HIS199      0.0771
    154  CG        18.7540   50.2830   53.5710 C.ar  199  HIS199      0.0820
    155  ND1       18.5910   49.2350   54.4520 N.ar  199  HIS199     -0.2267
    156  CD2       20.0880   50.5140   53.5000 C.ar  199  HIS199      0.1154
    157  CE1       19.7740   48.8540   54.9000 C.ar  199  HIS199      0.1986
    158  NE2       20.6990   49.6130   54.3380 N.ar  199  HIS199     -0.2212
    159  N         12.8930   47.8990   54.7820 N.3   201  CYS201     -0.1235
    160  CA        12.3160   46.6900   54.2470 C.3   201  CYS201      0.1677
    161  C         10.8930   46.9920   53.7710 C.2   201  CYS201      0.2270
    162  O         10.3690   48.0780   54.0070 O.2   201  CYS201     -0.2867
    163  CB        12.2990   45.6390   55.3490 C.3   201  CYS201      0.0956
    164  SG        11.6540   46.3260   56.9070 S.3   201  CYS201     -0.0801
    165  N         13.6370   40.4830   49.3200 N.3   208  GLY208     -0.1225
    166  CA        14.7300   40.0970   50.1890 C.3   208  GLY208      0.1811
    167  C         15.5440   38.9860   49.5570 C.2   208  GLY208      0.2280
    168  O         15.0280   38.2190   48.7430 O.2   208  GLY208     -0.2866
@<TRIPOS>BOND
     1    41    42    1
     2    42    43    1
     3    42    45    1
     4    58    57    2
     5    43    44    2
     6    43    55   am
     7    57    56    1
     8    55    56    1
     9    45    46    1
    10    56    59    1
    11    47    46   ar
    12    47    49   ar
    13    46    48   ar
    14    49    50   ar
    15    59    60    1
    16    48    50   ar
    17    48    51   ar
    18    60    61    1
    19    50    52   ar
    20    51    53   ar
    21    61    62    1
    22    52    54   ar
    23    53    54   ar
    24   140   138   ar
    25   140   139   ar
    26    64    63    1
    27    62    63    2
    28   138   136   ar
    29    63    65    1
    30   139   137   ar
    31   168   167    2
    32   165   166    1
    33   136   135   ar
    34   136   134   ar
    35   167   166    1
    36   137   134   ar
    37   135   133   ar
    38   134   132   ar
    39   146   145    1
    40   146   147    1
    41   145   143   am
    42   143   144    2
    43   143   142    1
    44   133   132   ar
    45   142   141    2
    46    37    36    2
    47   132   131    1
    48    40    38    1
    49   149   147   am
    50   149   150    1
    51   130   129    2
    52   152   151    2
    53   147   148    2
    54   141   129    1
    55    36    35    1
    56   129   128    1
    57    73    71   ar
    58   151   150    1
    59   153   150    1
    60   153   154    1
    61    72    71   ar
    62    71    70    1
    63   131   128    1
    64    38    35    1
    65    38    39    1
    66    70    67    1
    67   128   127    1
    68    35    34    1
    69   126   125    1
    70   156   154   ar
    71   156   158   ar
    72   125   122    1
    73   127   123   am
    74   154   155   ar
    75   161   162    2
    76   161   160    1
    77    34    27   am
    78    67    66    1
    79    67    68    1
    80    25    26    1
    81   160   159    1
    82   160   163    1
    83   158   157   ar
    84   155   157   ar
    85   123   122    1
    86   123   124    2
    87   122   121    1
    88   121   116   am
    89    27    26    1
    90    27    28    2
    91    26    29    1
    92   163   164    1
    93    68    74   am
    94    68    69    2
    95    74    75    1
    96    79    78    1
    97    77    76    2
    98   116   115    1
    99   116   117    2
   100   115   114    1
   101   115   118    1
   102    29    30    1
   103    78    75    1
   104    78    80    1
   105    75    76    1
   106    76    81   am
   107   119   118    1
   108   164    86    1
   109   118   120    1
   110    30    31    1
   111    33    31   ar
   112    31    32   ar
   113    21    23   ar
   114    21    20   ar
   115    86    85    1
   116    81    82    1
   117    23    24   ar
   118    82    85    1
   119    82    83    1
   120    19    20    1
   121    19    16    1
   122    20    22   ar
   123    24    22   ar
   124    15    16    1
   125   113   112    1
   126    83    84    2
   127    83    87   am
   128    16    17    1
   129    87    88    1
   130   109   112    1
   131   109   108    1
   132   109   110    1
   133    88    91    1
   134    88    89    1
   135   110   111    2
   136    91    92    1
   137    17    18    2
   138    93    92   ar
   139    93    95   ar
   140    92    94   ar
   141    89    97   am
   142    89    90    2
   143    95    96   ar
   144    97    98    1
   145    94    96   ar
   146    99    98    1
   147    99   100    2
   148    98   101    1
   149    14    13    1
   150    13    10    1
   151   101   102    1
   152   102   104   ar
   153   102   103   ar
   154    10    11    1
   155    10     9    1
   156   104   106   ar
   157     4     3    2
   158    11    12    2
   159   103   105   ar
   160   106   107   ar
   161   105   107   ar
   162     9     3   am
   163     3     2    1
   164     2     5    1
   165     2     1    1
   166     5     6    1
   167     8     6    1
   168     7     6    1
