@<TRIPOS>MOLECULE
tmp/1br1C00.pdb
 200 196 0 0 0
SMALL
GASTEIGER

@<TRIPOS>ATOM
      1  N         79.4750   32.1570   38.3370 N.3   112  ILE112     -0.1231
      2  CA        79.6540   33.0990   39.4260 C.3   112  ILE112      0.1692
      3  C         80.5510   32.5560   40.5540 C.2   112  ILE112      0.2592
      4  O         81.3680   33.2880   41.1270 O.2   112  ILE112     -0.2718
      5  CB        78.3010   33.5680   39.9540 C.3   112  ILE112      0.0266
      6  CG1       77.4130   32.3990   40.3830 C.3   112  ILE112      0.0019
      7  CG2       77.5060   34.3600   38.9150 C.3   112  ILE112      0.0020
      8  CD1       75.9250   32.6670   40.1770 C.3   112  ILE112      0.0001
      9  N         80.4160   31.2870   40.8780 N.am  113  TYR113     -0.1976
     10  CA        81.2340   30.6750   41.9510 C.3   113  TYR113      0.1639
     11  C         82.6850   30.4710   41.4830 C.2   113  TYR113      0.2290
     12  O         82.9390   29.9720   40.3820 O.2   113  TYR113     -0.2864
     13  CB        80.6720   29.3110   42.3320 C.3   113  TYR113      0.0560
     14  CG        79.2500   29.3800   42.8800 C.ar  113  TYR113     -0.0198
     15  CD1       78.1770   29.5930   42.0080 C.ar  113  TYR113     -0.0009
     16  CD2       79.0270   29.2270   44.2510 C.ar  113  TYR113     -0.0009
     17  CE1       76.8730   29.6420   42.5090 C.ar  113  TYR113      0.0417
     18  CE2       77.7220   29.2730   44.7520 C.ar  113  TYR113      0.0417
     19  CZ        76.6450   29.4790   43.8810 C.ar  113  TYR113      0.1957
     20  OH        75.3770   29.5190   44.3690 O.3   113  TYR113     -0.2866
     21  N         81.8220   34.5170   45.2430 N.3   122  VAL122     -0.1245
     22  CA        80.5520   34.2110   44.5750 C.3   122  VAL122      0.1561
     23  C         79.7430   35.4240   44.0670 C.2   122  VAL122      0.2260
     24  O         78.6530   35.6850   44.6070 O.2   122  VAL122     -0.2867
     25  CB        79.6000   33.4170   45.5170 C.3   122  VAL122      0.0252
     26  CG1       78.3250   33.0230   44.7810 C.3   122  VAL122      0.0019
     27  CG2       80.2790   32.1850   46.0350 C.3   122  VAL122      0.0019
     28  N         77.1340   37.8000   42.8130 N.3   124  ASN124     -0.1226
     29  CA        75.7070   37.7470   42.5200 C.3   124  ASN124      0.1770
     30  C         75.5030   37.8660   40.9920 C.2   124  ASN124      0.2439
     31  O         76.1370   38.6840   40.3010 O.2   124  ASN124     -0.2733
     32  CB        74.9820   38.9100   43.2320 C.3   124  ASN124      0.1168
     33  CG        73.4690   38.7120   43.3340 C.2   124  ASN124      0.2627
     34  OD1       72.8680   38.0450   42.5150 O.2   124  ASN124     -0.2716
     35  ND2       72.8560   39.3040   44.3480 N.am  124  ASN124     -0.0877
     36  N         74.6480   37.0020   40.4380 N.am  125  PRO125     -0.2718
     37  CA        74.3600   37.0120   39.0140 C.3   125  PRO125      0.1535
     38  C         73.2460   38.0010   38.7410 C.2   125  PRO125      0.2599
     39  O         73.3020   38.7850   37.7970 O.2   125  PRO125     -0.2715
     40  CB        73.9160   35.5800   38.7530 C.3   125  PRO125      0.0310
     41  CG        73.2060   35.1980   40.0090 C.3   125  PRO125      0.0237
     42  CD        73.9530   35.8940   41.1200 C.3   125  PRO125      0.0939
     43  N         72.2300   37.9280   39.5920 N.am  126  TYR126     -0.1960
     44  CA        71.0170   38.7480   39.5270 C.3   126  TYR126      0.1771
     45  C         70.0830   38.1930   38.4780 C.2   126  TYR126      0.2619
     46  O         68.9770   38.6830   38.2790 O.2   126  TYR126     -0.2715
     47  CB        71.3460   40.2050   39.2240 C.3   126  TYR126      0.0574
     48  CG        71.4520   41.0690   40.4720 C.ar  126  TYR126     -0.0198
     49  CD1       70.6560   40.8190   41.5990 C.ar  126  TYR126     -0.0009
     50  CD2       72.3550   42.1330   40.5330 C.ar  126  TYR126     -0.0009
     51  CE1       70.7620   41.6060   42.7490 C.ar  126  TYR126      0.0417
     52  CE2       72.4650   42.9230   41.6800 C.ar  126  TYR126      0.0417
     53  CZ        71.6680   42.6540   42.7790 C.ar  126  TYR126      0.1957
     54  OH        71.7810   43.4440   43.8970 O.3   126  TYR126     -0.2866
     55  N         70.5560   37.1300   37.8390 N.am  127  LYS127     -0.1963
     56  CA        69.8370   36.4480   36.7910 C.3   127  LYS127      0.1728
     57  C         69.6030   35.0280   37.2190 C.2   127  LYS127      0.2616
     58  O         70.3110   34.4890   38.0630 O.2   127  LYS127     -0.2715
     59  CB        70.6540   36.4790   35.5040 C.3   127  LYS127      0.0311
     60  CG        69.9890   35.8130   34.3180 C.3   127  LYS127      0.0038
     61  CD        71.0210   35.4040   33.2670 C.3   127  LYS127      0.0206
     62  CE        70.6160   34.1060   32.5600 C.3   127  LYS127      0.1093
     63  NZ        71.0410   34.0420   31.1220 N.3   127  LYS127     -0.1314
     64  N         68.5900   34.4310   36.6170 N.am  128  GLN128     -0.1963
     65  CA        68.1790   33.0610   36.9020 C.3   128  GLN128      0.1733
     66  C         69.0070   32.0120   36.1470 C.2   128  GLN128      0.2616
     67  O         68.4900   31.3220   35.2650 O.2   128  GLN128     -0.2715
     68  CB        66.6870   32.9110   36.5670 C.3   128  GLN128      0.0408
     69  CG        65.7990   34.0540   37.1110 C.3   128  GLN128      0.0908
     70  CD        65.4280   35.1320   36.0660 C.2   128  GLN128      0.2608
     71  OE1       66.2900   35.8720   35.5710 O.2   128  GLN128     -0.2717
     72  NE2       64.1360   35.2270   35.7450 N.am  128  GLN128     -0.0878
     73  N         70.2910   31.9120   36.4800 N.am  129  LEU129     -0.1977
     74  CA        71.1580   30.9260   35.8610 C.3   129  LEU129      0.1596
     75  C         70.5330   29.5660   36.1610 C.2   129  LEU129      0.2287
     76  O         69.7650   29.4420   37.1080 O.2   129  LEU129     -0.2864
     77  CB        72.5380   31.0020   36.4790 C.3   129  LEU129      0.0297
     78  CG        73.2100   32.3500   36.3820 C.3   129  LEU129      0.0022
     79  CD1       74.7000   32.1800   36.5200 C.3   129  LEU129      0.0001
     80  CD2       72.8830   32.9730   35.0640 C.3   129  LEU129      0.0001
     81  N         71.0760   24.8080   39.4310 N.3   132  TYR132     -0.1241
     82  CA        70.5780   24.2240   40.6630 C.3   132  TYR132      0.1605
     83  C         69.4360   23.2810   40.2580 C.2   132  TYR132      0.2264
     84  O         68.3730   23.7320   39.8440 O.2   132  TYR132     -0.2867
     85  CB        70.0580   25.3190   41.6130 C.3   132  TYR132      0.0534
     86  CG        71.0230   26.4660   41.8710 C.ar  132  TYR132     -0.0201
     87  CD1       72.1880   26.2720   42.6110 C.ar  132  TYR132     -0.0009
     88  CD2       70.7650   27.7450   41.3770 C.ar  132  TYR132     -0.0009
     89  CE1       73.0630   27.3150   42.8470 C.ar  132  TYR132      0.0417
     90  CE2       71.6330   28.7860   41.6110 C.ar  132  TYR132      0.0417
     91  CZ        72.7760   28.5670   42.3430 C.ar  132  TYR132      0.1957
     92  OH        73.6430   29.6120   42.5480 O.3   132  TYR132     -0.2866
     93  N         75.5600   43.8310   52.2410 N.3   178  SER178     -0.1202
     94  CA        74.1410   43.6680   52.0740 C.3   178  SER178      0.2020
     95  C         73.7300   43.5050   50.6230 C.2   178  SER178      0.2619
     96  O         74.0830   44.3270   49.7820 O.2   178  SER178     -0.2717
     97  CB        73.3950   44.8470   52.6760 C.3   178  SER178      0.2103
     98  OG        72.0410   44.7980   52.2810 O.3   178  SER178     -0.2182
     99  N         72.9720   42.4400   50.3460 N.am  179  GLY179     -0.1942
    100  CA        72.4870   42.1700   49.0030 C.3   179  GLY179      0.2014
    101  C         73.3030   41.1520   48.2280 C.2   179  GLY179      0.2639
    102  O         72.7870   40.4830   47.3400 O.2   179  GLY179     -0.2714
    103  N         74.5790   41.0230   48.5780 N.am  180  ALA180     -0.1963
    104  CA        75.4910   40.1070   47.8970 C.3   180  ALA180      0.1728
    105  C         75.0450   38.6710   47.8560 C.2   180  ALA180      0.2617
    106  O         75.8010   37.8310   47.4290 O.2   180  ALA180     -0.2715
    107  CB        76.8790   40.1780   48.5210 C.3   180  ALA180      0.0334
    108  N         73.8450   38.3730   48.3230 N.am  181  GLY181     -0.1940
    109  CA        73.3760   37.0060   48.2610 C.3   181  GLY181      0.2014
    110  C         73.6380   36.0740   49.4250 C.2   181  GLY181      0.2639
    111  O         73.6090   34.8550   49.2900 O.2   181  GLY181     -0.2714
    112  N         73.8880   36.6310   50.5900 N.am  182  LYS182     -0.1963
    113  CA        74.1340   35.8040   51.7560 C.3   182  LYS182      0.1728
    114  C         73.0640   34.7320   51.9520 C.2   182  LYS182      0.2617
    115  O         73.3690   33.5900   52.2970 O.2   182  LYS182     -0.2715
    116  CB        74.1810   36.6930   52.9900 C.3   182  LYS182      0.0311
    117  CG        75.5760   36.9370   53.4970 C.3   182  LYS182      0.0038
    118  CD        76.0210   38.3680   53.2400 C.3   182  LYS182      0.0206
    119  CE        74.9830   39.3800   53.6640 C.3   182  LYS182      0.1093
    120  NZ        75.2430   40.6590   52.9510 N.3   182  LYS182     -0.1314
    121  N         71.8100   35.1190   51.7300 N.am  183  THR183     -0.1937
    122  CA        70.6670   34.2190   51.9130 C.3   183  THR183      0.2028
    123  C         70.5460   33.0800   50.9120 C.2   183  THR183      0.2642
    124  O         70.6440   31.9110   51.2740 O.2   183  THR183     -0.2714
    125  CB        69.3180   34.9730   51.8750 C.3   183  THR183      0.1808
    126  OG1       69.2850   36.0080   52.8690 O.3   183  THR183     -0.2208
    127  CG2       68.1900   33.9950   52.1180 C.3   183  THR183      0.0379
    128  N         70.3020   33.4300   49.6560 N.am  184  GLU184     -0.1963
    129  CA        70.1570   32.4330   48.6150 C.3   184  GLU184      0.1733
    130  C         71.1230   31.2690   48.8630 C.2   184  GLU184      0.2616
    131  O         70.6980   30.1320   49.1140 O.2   184  GLU184     -0.2715
    132  CB        70.4180   33.0660   47.2420 C.3   184  GLU184      0.0429
    133  CG        69.4130   34.1330   46.8480 C.3   184  GLU184      0.1163
    134  CD        68.0760   33.5610   46.3830 C.2   184  GLU184      0.3649
    135  OE1       67.7380   32.4180   46.7550 O.co2 184  GLU184     -0.2457
    136  OE2       67.3540   34.2610   45.6420 O.co2 184  GLU184     -0.2457
    137  N         72.4180   31.5710   48.8290 N.am  185  ASN185     -0.1972
    138  CA        73.4460   30.5710   49.0250 C.3   185  ASN185      0.1688
    139  C         73.2290   29.6880   50.2270 C.2   185  ASN185      0.2292
    140  O         73.8240   28.6300   50.3330 O.2   185  ASN185     -0.2864
    141  CB        74.7850   31.2440   49.1140 C.3   185  ASN185      0.1181
    142  CG        75.2810   31.6670   47.7670 C.2   185  ASN185      0.2629
    143  OD1       76.2570   31.1170   47.2600 O.2   185  ASN185     -0.2716
    144  ND2       74.6060   32.6400   47.1580 N.am  185  ASN185     -0.0877
    145  N         67.4420   45.7860   48.6050 N.3   235  ASN235     -0.1225
    146  CA        66.9490   44.4530   48.2690 C.3   235  ASN235      0.1785
    147  C         65.4520   44.2270   48.4460 C.2   235  ASN235      0.2597
    148  O         64.9160   44.2310   49.5540 O.2   235  ASN235     -0.2718
    149  CB        67.7010   43.3910   49.0670 C.3   235  ASN235      0.1169
    150  CG        66.9640   42.0640   49.0970 C.2   235  ASN235      0.2627
    151  OD1       65.9580   41.8830   48.4150 O.2   235  ASN235     -0.2716
    152  ND2       67.4680   41.1250   49.8890 N.am  235  ASN235     -0.0877
    153  N         64.7990   43.9770   47.3230 N.am  236  ASP236     -0.1960
    154  CA        63.3660   43.7420   47.2860 C.3   236  ASP236      0.1840
    155  C         62.8990   42.7400   48.3440 C.2   236  ASP236      0.2622
    156  O         61.7750   42.8280   48.8380 O.2   236  ASP236     -0.2715
    157  CB        62.9560   43.2550   45.8890 C.3   236  ASP236      0.1450
    158  CG        63.4640   44.1600   44.7800 C.2   236  ASP236      0.3671
    159  OD1       63.4680   45.3970   44.9740 O.co2 236  ASP236     -0.2456
    160  OD2       63.8620   43.6290   43.7170 O.co2 236  ASP236     -0.2456
    161  N         63.7430   41.7720   48.6760 N.am  237  ASN237     -0.1958
    162  CA        63.3750   40.8080   49.6970 C.3   237  ASN237      0.1819
    163  C         64.5560   40.6420   50.6230 C.2   237  ASN237      0.2622
    164  O         65.2410   39.6170   50.6210 O.2   237  ASN237     -0.2715
    165  CB        63.0060   39.4640   49.1000 C.3   237  ASN237      0.1195
    166  CG        62.9580   38.3640   50.1520 C.2   237  ASN237      0.2630
    167  OD1       61.9080   38.1050   50.7270 O.2   237  ASN237     -0.2716
    168  ND2       64.0980   37.7110   50.4070 N.am  237  ASN237     -0.0877
    169  N         64.7970   41.6750   51.4170 N.am  238  SER238     -0.1936
    170  CA        65.9010   41.6430   52.3500 C.3   238  SER238      0.2055
    171  C         65.5770   40.8990   53.6310 C.2   238  SER238      0.2643
    172  O         64.4440   40.9580   54.1430 O.2   238  SER238     -0.2714
    173  CB        66.3490   43.0580   52.7050 C.3   238  SER238      0.2130
    174  OG        67.6210   43.0290   53.3330 O.3   238  SER238     -0.2179
    175  N         66.5900   40.1950   54.1340 N.am  239  SER239     -0.1949
    176  CA        66.4870   39.4560   55.3820 C.3   239  SER239      0.1924
    177  C         66.6440   40.4820   56.5200 C.2   239  SER239      0.2314
    178  O         67.7450   40.9850   56.7810 O.2   239  SER239     -0.2863
    179  CB        67.6320   38.4310   55.4900 C.3   239  SER239      0.2116
    180  OG        67.4070   37.3550   54.5910 O.3   239  SER239     -0.2180
    181  N         73.5400   32.9990   58.2570 N.3   452  ASP452     -0.1225
    182  CA        73.0100   34.0460   57.4070 C.3   452  ASP452      0.1805
    183  C         72.8070   35.2920   58.2670 C.2   452  ASP452      0.2597
    184  O         71.7280   35.4840   58.8290 O.2   452  ASP452     -0.2718
    185  CB        71.6750   33.5800   56.8090 C.3   452  ASP452      0.1424
    186  CG        70.6950   34.7190   56.5740 C.2   452  ASP452      0.3668
    187  OD1       71.1350   35.8570   56.3250 O.co2 452  ASP452     -0.2456
    188  OD2       69.4730   34.4770   56.6350 O.co2 452  ASP452     -0.2456
    189  N         73.8360   36.1250   58.4070 N.am  453  ILE453     -0.1980
    190  CA        73.6790   37.3290   59.2190 C.3   453  ILE453      0.1595
    191  C         73.2050   38.4190   58.2570 C.2   453  ILE453      0.2287
    192  O         73.3110   38.2720   57.0320 O.2   453  ILE453     -0.2864
    193  CB        75.0150   37.7820   59.8280 C.3   453  ILE453      0.0276
    194  CG1       76.1320   37.8800   58.7890 C.3   453  ILE453      0.0022
    195  CG2       75.5240   36.8310   60.9120 C.3   453  ILE453      0.0022
    196  CD1       76.3820   39.3120   58.3150 C.3   453  ILE453      0.0001
    197  N         73.5820   41.7230   56.2380 N.3   455  GLY455     -0.1225
    198  CA        74.7830   42.3320   55.6410 C.3   455  GLY455      0.1811
    199  C         74.8900   43.8390   55.8900 C.2   455  GLY455      0.2280
    200  O         73.8750   44.5520   55.9860 O.2   455  GLY455     -0.2866
@<TRIPOS>BOND
     1    63    62    1
     2    62    61    1
     3    61    60    1
     4    60    59    1
     5    80    78    1
     6    67    66    2
     7    59    56    1
     8    71    70    2
     9    72    70   am
    10    74    75    1
    11    74    77    1
    12    74    73    1
    13    70    69    1
    14    66    73   am
    15    66    65    1
    16    75    76    2
    17    78    77    1
    18    78    79    1
    19    68    65    1
    20    68    69    1
    21    64    65    1
    22    64    57   am
    23    56    57    1
    24    56    55    1
    25    57    58    2
    26    39    38    2
    27    55    45   am
    28    46    45    2
    29     1     2    1
    30    45    44    1
    31    38    37    1
    32    38    43   am
    33    40    37    1
    34    40    41    1
    35     7     5    1
    36    37    36    1
    37    47    44    1
    38    47    48    1
    39     2     5    1
    40     2     3    1
    41    81    82    1
    42    44    43    1
    43    84    83    2
    44     5     6    1
    45    41    42    1
    46     8     6    1
    47    83    82    1
    48    31    30    2
    49    12    11    2
    50    36    30   am
    51    36    42    1
    52    48    50   ar
    53    48    49   ar
    54    50    52   ar
    55     3     9   am
    56     3     4    2
    57    82    85    1
    58     9    10    1
    59    30    29    1
    60    88    90   ar
    61    88    86   ar
    62    11    10    1
    63    49    51   ar
    64    90    91   ar
    65    85    86    1
    66    52    53   ar
    67    86    87   ar
    68    10    13    1
    69    15    17   ar
    70    15    14   ar
    71    13    14    1
    72    91    92    1
    73    91    89   ar
    74    17    19   ar
    75    34    33    2
    76    29    28    1
    77    29    32    1
    78    87    89   ar
    79    51    53   ar
    80    53    54    1
    81    14    16   ar
    82    32    33    1
    83    33    35   am
    84   160   158   ar
    85    19    20    1
    86    19    18   ar
    87    23    22    1
    88    23    24    2
    89    16    18   ar
    90    22    21    1
    91    22    25    1
    92   158   159   ar
    93   158   157    1
    94    26    25    1
    95    25    27    1
    96   136   134   ar
    97   157   154    1
    98   134   135   ar
    99   134   133    1
   100   133   132    1
   101   144   142   am
   102   132   129    1
   103   143   142    2
   104   154   153    1
   105   154   155    1
   106   153   147   am
   107   102   101    2
   108   106   105    2
   109   142   141    1
   110   105   104    1
   111   105   108   am
   112   104   107    1
   113   104   103    1
   114   101   103   am
   115   101   100    1
   116   109   108    1
   117   109   110    1
   118   146   147    1
   119   146   145    1
   120   146   149    1
   121   155   161   am
   122   155   156    2
   123   151   150    2
   124   147   148    2
   125   129   130    1
   126   129   128    1
   127   161   162    1
   128   137   130   am
   129   137   138    1
   130   130   131    2
   131   100    99    1
   132   138   141    1
   133   138   139    1
   134   149   150    1
   135   150   152   am
   136   165   162    1
   137   165   166    1
   138   111   110    2
   139   110   112   am
   140   128   123   am
   141   162   163    1
   142    96    95    2
   143   166   168   am
   144   166   167    2
   145   139   140    2
   146    99    95   am
   147   112   113    1
   148   164   163    2
   149   163   169   am
   150    95    94    1
   151   123   124    2
   152   123   122    1
   153   169   170    1
   154   121   122    1
   155   121   114   am
   156   113   114    1
   157   113   116    1
   158   125   122    1
   159   125   127    1
   160   125   126    1
   161   114   115    2
   162    94    93    1
   163    94    97    1
   164    98    97    1
   165   170   173    1
   166   170   171    1
   167   173   174    1
   168   120   119    1
   169   116   117    1
   170   118   117    1
   171   118   119    1
   172   171   175   am
   173   171   172    2
   174   175   176    1
   175   180   179    1
   176   176   179    1
   177   176   177    1
   178   198   199    1
   179   198   197    1
   180   199   200    2
   181   187   186   ar
   182   177   178    2
   183   186   188   ar
   184   186   185    1
   185   185   182    1
   186   192   191    2
   187   182   181    1
   188   182   183    1
   189   191   190    1
   190   183   189   am
   191   183   184    2
   192   196   194    1
   193   189   190    1
   194   194   193    1
   195   190   193    1
   196   193   195    1
