@<TRIPOS>MOLECULE
tmp/1br2B00.pdb
 209 204 0 0 0
SMALL
GASTEIGER

@<TRIPOS>ATOM
      1  N         84.1750  116.7560   86.7620 N.3    74  ILE74      -0.1231
      2  CA        85.4600  116.0790   86.6760 C.3    74  ILE74       0.1692
      3  C         85.4790  114.8710   85.7400 C.2    74  ILE74       0.2592
      4  O         86.5420  114.3480   85.4080 O.2    74  ILE74      -0.2718
      5  CB        85.9740  115.6730   88.0850 C.3    74  ILE74       0.0266
      6  CG1       85.1350  114.5400   88.6680 C.3    74  ILE74       0.0019
      7  CG2       85.9200  116.8770   89.0150 C.3    74  ILE74       0.0020
      8  CD1       85.5890  114.1110   90.0550 C.3    74  ILE74       0.0001
      9  N         84.3130  114.4390   85.2860 N.am   75  TYR75      -0.1976
     10  CA        84.2530  113.2940   84.3810 C.3    75  TYR75       0.1639
     11  C         83.9610  113.7490   82.9590 C.2    75  TYR75       0.2290
     12  O         83.0140  114.4870   82.7300 O.2    75  TYR75      -0.2864
     13  CB        83.1670  112.3310   84.8390 C.3    75  TYR75       0.0560
     14  CG        83.4810  111.6660   86.1480 C.ar   75  TYR75      -0.0198
     15  CD1       84.2510  110.5130   86.1940 C.ar   75  TYR75      -0.0009
     16  CD2       82.9860  112.1710   87.3420 C.ar   75  TYR75      -0.0009
     17  CE1       84.5180  109.8730   87.4000 C.ar   75  TYR75       0.0417
     18  CE2       83.2490  111.5380   88.5480 C.ar   75  TYR75       0.0417
     19  CZ        84.0130  110.3890   88.5630 C.ar   75  TYR75       0.1957
     20  OH        84.2520  109.7500   89.7480 O.3    75  TYR75      -0.2866
     21  N         89.1130  111.5080   84.1550 N.3    84  VAL84      -0.1245
     22  CA        88.6770  112.0720   85.4440 C.3    84  VAL84       0.1561
     23  C         89.8140  112.8490   86.0640 C.2    84  VAL84       0.2260
     24  O         90.9250  112.3410   86.1530 O.2    84  VAL84      -0.2867
     25  CB        88.2840  110.9850   86.4490 C.3    84  VAL84       0.0252
     26  CG1       87.2800  111.5400   87.4310 C.3    84  VAL84       0.0019
     27  CG2       87.7030  109.7890   85.7320 C.3    84  VAL84       0.0019
     28  N         91.2870  114.7040   89.4120 N.3    86  ASN86      -0.1226
     29  CA        91.1210  114.7750   90.8540 C.3    86  ASN86       0.1770
     30  C         90.6080  116.1310   91.3530 C.2    86  ASN86       0.2439
     31  O         91.2610  117.1680   91.1840 O.2    86  ASN86      -0.2733
     32  CB        92.4560  114.4620   91.5250 C.3    86  ASN86       0.1168
     33  CG        92.2890  113.9010   92.9230 C.2    86  ASN86       0.2627
     34  OD1       91.3060  114.1880   93.6070 O.2    86  ASN86      -0.2716
     35  ND2       93.2530  113.0920   93.3540 N.am   86  ASN86      -0.0877
     36  N         89.4280  116.1490   91.9760 N.am   87  PRO87      -0.2718
     37  CA        88.9280  117.4350   92.4630 C.3    87  PRO87       0.1535
     38  C         89.6700  117.8580   93.7200 C.2    87  PRO87       0.2599
     39  O         89.7810  119.0320   94.0370 O.2    87  PRO87      -0.2715
     40  CB        87.4570  117.1560   92.7480 C.3    87  PRO87       0.0310
     41  CG        87.4250  115.7210   93.0860 C.3    87  PRO87       0.0237
     42  CD        88.4950  115.0520   92.2650 C.3    87  PRO87       0.0939
     43  N         90.1830  116.8750   94.4390 N.am   88  TYR88      -0.1960
     44  CA        90.9000  117.1260   95.6820 C.3    88  TYR88       0.1771
     45  C         89.9930  117.8560   96.6420 C.2    88  TYR88       0.2619
     46  O         90.4380  118.4940   97.5780 O.2    88  TYR88      -0.2715
     47  CB        92.1740  117.9200   95.4200 C.3    88  TYR88       0.0574
     48  CG        93.3840  117.0310   95.2450 C.ar   88  TYR88      -0.0198
     49  CD1       93.5040  115.8360   95.9560 C.ar   88  TYR88      -0.0009
     50  CD2       94.3950  117.3670   94.3570 C.ar   88  TYR88      -0.0009
     51  CE1       94.6090  114.9900   95.7840 C.ar   88  TYR88       0.0417
     52  CE2       95.5080  116.5320   94.1710 C.ar   88  TYR88       0.0417
     53  CZ        95.6100  115.3430   94.8860 C.ar   88  TYR88       0.1957
     54  OH        96.7010  114.5100   94.6880 O.3    88  TYR88      -0.2866
     55  N         88.6960  117.7370   96.4020 N.am   89  LYS89      -0.1963
     56  CA        87.6780  118.3510   97.2460 C.3    89  LYS89       0.1728
     57  C         86.3960  117.5430   97.1090 C.2    89  LYS89       0.2616
     58  O         86.1830  116.8510   96.1160 O.2    89  LYS89      -0.2715
     59  CB        87.4330  119.8100   96.8400 C.3    89  LYS89       0.0311
     60  CG        86.8250  120.0100   95.4510 C.3    89  LYS89       0.0038
     61  CD        87.6350  121.0210   94.6120 C.3    89  LYS89       0.0206
     62  CE        87.4760  120.8010   93.0940 C.3    89  LYS89       0.1093
     63  NZ        88.5350  121.4560   92.2580 N.3    89  LYS89      -0.1314
     64  N         85.5490  117.6350   98.1180 N.am   90  GLN90      -0.1963
     65  CA        84.2960  116.9110   98.1090 C.3    90  GLN90       0.1733
     66  C         83.3510  117.5610   97.1140 C.2    90  GLN90       0.2616
     67  O         83.2430  118.7860   97.0570 O.2    90  GLN90      -0.2715
     68  CB        83.6640  116.9180   99.5060 C.3    90  GLN90       0.0408
     69  CG        84.4010  116.0630  100.5260 C.3    90  GLN90       0.0908
     70  CD        84.4480  114.6010  100.1280 C.2    90  GLN90       0.2608
     71  OE1       83.5030  114.0830   99.5320 O.2    90  GLN90      -0.2717
     72  NE2       85.5530  113.9280  100.4540 N.am   90  GLN90      -0.0878
     73  N         82.6750  116.7330   96.3270 N.am   91  LEU91      -0.1977
     74  CA        81.7200  117.2200   95.3470 C.3    91  LEU91       0.1596
     75  C         80.3860  116.5080   95.5730 C.2    91  LEU91       0.2287
     76  O         80.3320  115.3060   95.8650 O.2    91  LEU91      -0.2864
     77  CB        82.2400  116.9730   93.9290 C.3    91  LEU91       0.0297
     78  CG        83.5320  117.7250   93.6000 C.3    91  LEU91       0.0022
     79  CD1       84.1070  117.2210   92.2940 C.3    91  LEU91       0.0001
     80  CD2       83.2550  119.1980   93.5140 C.3    91  LEU91       0.0001
     81  N         78.0590  112.0480   94.4310 N.3    94  TYR94      -0.1241
     82  CA        78.0800  110.6130   94.6690 C.3    94  TYR94       0.1605
     83  C         76.9880  110.1310   95.6110 C.2    94  TYR94       0.2264
     84  O         77.1500  109.0980   96.2630 O.2    94  TYR94      -0.2867
     85  CB        79.4440  110.1890   95.2010 C.3    94  TYR94       0.0534
     86  CG        80.5800  110.4950   94.2650 C.ar   94  TYR94      -0.0201
     87  CD1       80.7000  109.8340   93.0510 C.ar   94  TYR94      -0.0009
     88  CD2       81.5600  111.4280   94.6080 C.ar   94  TYR94      -0.0009
     89  CE1       81.7830  110.0930   92.1980 C.ar   94  TYR94       0.0417
     90  CE2       82.6410  111.6940   93.7700 C.ar   94  TYR94       0.0417
     91  CZ        82.7470  111.0230   92.5710 C.ar   94  TYR94       0.1957
     92  OH        83.8230  111.2720   91.7600 O.3    94  TYR94      -0.2866
     93  N        100.3950  108.1640   90.7340 N.3   140  SER140     -0.1202
     94  CA       100.0640  108.1620   92.1420 C.3   140  SER140      0.2020
     95  C         99.3100  109.4240   92.5440 C.2   140  SER140      0.2619
     96  O         99.7890  110.5340   92.3280 O.2   140  SER140     -0.2717
     97  CB       101.3420  108.0210   92.9620 C.3   140  SER140      0.2103
     98  OG       101.0490  107.9650   94.3460 O.3   140  SER140     -0.2182
     99  N         98.1220  109.2330   93.1090 N.am  141  GLY141     -0.1942
    100  CA        97.3140  110.3530   93.5550 C.3   141  GLY141      0.2014
    101  C         96.1770  110.7600   92.6370 C.2   141  GLY141      0.2639
    102  O         95.2460  111.4450   93.0700 O.2   141  GLY141     -0.2714
    103  N         96.2560  110.3390   91.3750 N.am  142  ALA142     -0.1963
    104  CA        95.2500  110.6630   90.3630 C.3   142  ALA142      0.1728
    105  C         93.8160  110.4250   90.8300 C.2   142  ALA142      0.2617
    106  O         92.9690  111.2980   90.6940 O.2   142  ALA142     -0.2715
    107  CB        95.5200  109.8750   89.0960 C.3   142  ALA142      0.0334
    108  N         93.5300  109.2530   91.3760 N.am  143  GLY143     -0.1940
    109  CA        92.1810  109.0040   91.8430 C.3   143  GLY143      0.2014
    110  C         91.6940  107.5920   91.6080 C.2   143  GLY143      0.2639
    111  O         90.5120  107.2870   91.8430 O.2   143  GLY143     -0.2714
    112  N         92.5990  106.7240   91.1670 N.am  144  LYS144     -0.1963
    113  CA        92.2390  105.3460   90.8820 C.3   144  LYS144      0.1728
    114  C         91.3470  104.6950   91.9350 C.2   144  LYS144      0.2617
    115  O         90.3440  104.0440   91.5980 O.2   144  LYS144     -0.2715
    116  CB        93.4860  104.5120   90.7180 C.3   144  LYS144      0.0311
    117  CG        94.2460  104.8420   89.4960 C.3   144  LYS144      0.0038
    118  CD        95.2870  103.7860   89.2650 C.3   144  LYS144      0.0206
    119  CE        96.3800  103.8850   90.2970 C.3   144  LYS144      0.1093
    120  NZ        97.0050  105.2160   90.2240 N.3   144  LYS144     -0.1314
    121  N         91.7090  104.8530   93.2070 N.am  145  THR145     -0.1937
    122  CA        90.9240  104.2420   94.2770 C.3   145  THR145      0.2028
    123  C         89.5850  104.8860   94.5600 C.2   145  THR145      0.2642
    124  O         88.5730  104.2040   94.6910 O.2   145  THR145     -0.2714
    125  CB        91.6920  104.1910   95.5970 C.3   145  THR145      0.1808
    126  OG1       92.8730  103.3980   95.4350 O.3   145  THR145     -0.2208
    127  CG2       90.8250  103.5630   96.6730 C.3   145  THR145      0.0379
    128  N         89.5660  106.1970   94.6800 N.am  146  GLU146     -0.1963
    129  CA        88.3100  106.8420   94.9620 C.3   146  GLU146      0.1733
    130  C         87.2860  106.3720   93.9390 C.2   146  GLU146      0.2616
    131  O         86.1130  106.1300   94.2620 O.2   146  GLU146     -0.2715
    132  CB        88.4880  108.3610   94.9060 C.3   146  GLU146      0.0429
    133  CG        89.2020  108.9230   96.1140 C.3   146  GLU146      0.1163
    134  CD        88.6470  108.3910   97.4310 C.2   146  GLU146      0.3649
    135  OE1       87.4290  108.1170   97.4980 O.co2 146  GLU146     -0.2457
    136  OE2       89.4290  108.2470   98.4020 O.co2 146  GLU146     -0.2457
    137  N         87.7590  106.2150   92.7040 N.am  147  ASN147     -0.1972
    138  CA        86.9070  105.8080   91.5980 C.3   147  ASN147      0.1688
    139  C         86.6030  104.3280   91.5640 C.2   147  ASN147      0.2292
    140  O         85.5050  103.9240   91.2190 O.2   147  ASN147     -0.2864
    141  CB        87.5270  106.2550   90.2860 C.3   147  ASN147      0.1181
    142  CG        87.0760  107.6410   89.8950 C.2   147  ASN147      0.2629
    143  OD1       85.9730  107.8170   89.3930 O.2   147  ASN147     -0.2716
    144  ND2       87.9150  108.6340   90.1360 N.am  147  ASN147     -0.0877
    145  N         83.9620  103.8810   93.8980 N.3   150  LYS150     -0.1245
    146  CA        82.6530  104.3600   93.4400 C.3   150  LYS150      0.1561
    147  C         81.9610  103.3380   92.5550 C.2   150  LYS150      0.2260
    148  O         80.7380  103.2140   92.5640 O.2   150  LYS150     -0.2867
    149  CB        82.8080  105.6610   92.6630 C.3   150  LYS150      0.0271
    150  CG        83.1410  106.8410   93.5270 C.3   150  LYS150      0.0035
    151  CD        82.0070  107.1310   94.4900 C.3   150  LYS150      0.0206
    152  CE        82.5540  107.5600   95.8460 C.3   150  LYS150      0.1093
    153  NZ        84.0580  107.6250   95.8710 N.3   150  LYS150     -0.1314
    154  N        100.6820  110.7530   98.0190 N.3   185  ASN185     -0.1225
    155  CA        99.3110  110.5500   98.4320 C.3   185  ASN185      0.1785
    156  C         99.2120  110.2010   99.9090 C.2   185  ASN185      0.2597
    157  O        100.0080  109.4240  100.4160 O.2   185  ASN185     -0.2718
    158  CB        98.7150  109.4340   97.5920 C.3   185  ASN185      0.1169
    159  CG        97.2780  109.2030   97.8930 C.2   185  ASN185      0.2627
    160  OD1       96.7240  109.7930   98.8180 O.2   185  ASN185     -0.2716
    161  ND2       96.6500  108.3430   97.1180 N.am  185  ASN185     -0.0877
    162  N         98.2190  110.7680  100.5840 N.am  186  ASP186     -0.1960
    163  CA        98.0280  110.5270  102.0040 C.3   186  ASP186      0.1840
    164  C         97.3820  109.1810  102.2940 C.2   186  ASP186      0.2622
    165  O         97.6520  108.5580  103.3200 O.2   186  ASP186     -0.2715
    166  CB        97.1980  111.6500  102.6040 C.3   186  ASP186      0.1450
    167  CG        97.9460  112.9630  102.6100 C.2   186  ASP186      0.3671
    168  OD1       99.1840  112.9330  102.4400 O.co2 186  ASP186     -0.2456
    169  OD2       97.3090  114.0260  102.7780 O.co2 186  ASP186     -0.2456
    170  N         96.5270  108.7300  101.3920 N.am  187  ASN187     -0.1958
    171  CA        95.8640  107.4510  101.5600 C.3   187  ASN187      0.1819
    172  C         96.3230  106.6140  100.3740 C.2   187  ASN187      0.2622
    173  O         95.5000  106.1190   99.5910 O.2   187  ASN187     -0.2715
    174  CB        94.3540  107.6370  101.5230 C.3   187  ASN187      0.1195
    175  CG        93.6070  106.3250  101.5160 C.2   187  ASN187      0.2630
    176  OD1       93.8200  105.4720  102.3810 O.2   187  ASN187     -0.2716
    177  ND2       92.7170  106.1530  100.5350 N.am  187  ASN187     -0.0877
    178  N         97.6380  106.4590  100.2320 N.am  188  SER188     -0.1936
    179  CA        98.1750  105.7040   99.1070 C.3   188  SER188      0.2055
    180  C         98.1750  104.1920   99.2520 C.2   188  SER188      0.2643
    181  O         98.6570  103.6460  100.2440 O.2   188  SER188     -0.2714
    182  CB        99.5940  106.1400   98.8000 C.3   188  SER188      0.2130
    183  OG       100.2100  105.1840   97.9590 O.3   188  SER188     -0.2179
    184  N         97.6080  103.5240   98.2560 N.am  189  SER189     -0.1949
    185  CA        97.5570  102.0830   98.2010 C.3   189  SER189      0.1924
    186  C         98.9850  101.6750   97.9370 C.2   189  SER189      0.2314
    187  O         99.5900  102.1030   96.9540 O.2   189  SER189     -0.2863
    188  CB        96.6680  101.6290   97.0440 C.3   189  SER189      0.2116
    189  OG        95.3790  102.2050   97.1100 O.3   189  SER189     -0.2180
    190  N         92.5830   98.4650   90.3840 N.3   388  ASP388     -0.1225
    191  CA        93.1970   99.6180   91.0410 C.3   388  ASP388      0.1805
    192  C         94.6560   99.2790   91.3830 C.2   388  ASP388      0.2597
    193  O         94.9740   98.8900   92.5100 O.2   388  ASP388     -0.2718
    194  CB        92.4100   99.9680   92.3090 C.3   388  ASP388      0.1424
    195  CG        93.2030  100.8190   93.2750 C.2   388  ASP388      0.3668
    196  OD1       94.1180  101.5450   92.8300 O.co2 388  ASP388     -0.2456
    197  OD2       92.9110  100.7610   94.4870 O.co2 388  ASP388     -0.2456
    198  N         95.5360   99.4120   90.3980 N.am  389  ILE389     -0.1980
    199  CA        96.9540   99.1300   90.6070 C.3   389  ILE389      0.1595
    200  C         97.6260  100.2730   91.3580 C.2   389  ILE389      0.2287
    201  O         97.0430  101.3350   91.5570 O.2   389  ILE389     -0.2864
    202  CB        97.7400   98.9580   89.2690 C.3   389  ILE389      0.0276
    203  CG1       97.4750  100.1500   88.3560 C.3   389  ILE389      0.0022
    204  CG2       97.3560   97.6630   88.5810 C.3   389  ILE389      0.0022
    205  CD1       98.6470  100.4990   87.5110 C.3   389  ILE389      0.0001
    206  N         99.7560  103.2600   91.4520 N.3   391  GLY391     -0.1225
    207  CA       100.0750  104.2060   90.4140 C.3   391  GLY391      0.1811
    208  C        101.5310  104.5750   90.3240 C.2   391  GLY391      0.2280
    209  O        102.2800  104.5440   91.2870 O.2   391  GLY391     -0.2866
@<TRIPOS>BOND
     1    12    11    2
     2    11    10    1
     3    21    22    1
     4    10    13    1
     5    10     9    1
     6    13    14    1
     7     9     3   am
     8     4     3    2
     9    22    23    1
    10    22    25    1
    11    27    25    1
    12     3     2    1
    13    23    24    2
    14    14    15   ar
    15    14    16   ar
    16    15    17   ar
    17    25    26    1
    18     2     1    1
    19     2     5    1
    20    16    18   ar
    21    17    19   ar
    22   205   203    1
    23     5     6    1
    24     5     7    1
    25   203   202    1
    26    18    19   ar
    27    19    20    1
    28   204   202    1
    29     6     8    1
    30   107   104    1
    31   118   117    1
    32   118   119    1
    33   202   199    1
    34   143   142    2
    35    28    29    1
    36   117   116    1
    37   142   144   am
    38   142   141    1
    39   120   119    1
    40   141   138    1
    41   208   207    1
    42   208   209    2
    43   104   105    1
    44   104   103    1
    45   190   191    1
    46   198   199    1
    47   198   192   am
    48   207   206    1
    49   199   200    1
    50   106   105    2
    51   116   113    1
    52    93    94    1
    53   105   108   am
    54    29    30    1
    55    29    32    1
    56   113   112    1
    57   113   114    1
    58   191   192    1
    59   191   194    1
    60   112   110   am
    61    31    30    2
    62   140   139    2
    63    30    36   am
    64   200   201    2
    65   103   101   am
    66   108   109    1
    67   192   193    2
    68    32    33    1
    69   139   138    1
    70   115   114    2
    71   138   137    1
    72   110   109    1
    73   110   111    2
    74    92    91    1
    75   114   121   am
    76    36    42    1
    77    36    37    1
    78    94    95    1
    79    94    97    1
    80    89    91   ar
    81    89    87   ar
    82    63    62    1
    83    42    41    1
    84    79    78    1
    85   194   195    1
    86    96    95    2
    87    37    40    1
    88    37    38    1
    89    95    99   am
    90   147   148    2
    91   147   146    1
    92    91    90   ar
    93   101   102    2
    94   101   100    1
    95   149   146    1
    96   149   150    1
    97   137   130   am
    98    40    41    1
    99   196   195   ar
   100    33    35   am
   101    33    34    2
   102    97    98    1
   103    87    86   ar
   104    62    61    1
   105    99   100    1
   106   121   122    1
   107   195   197   ar
   108   146   145    1
   109    80    78    1
   110   150   151    1
   111    78    77    1
   112    38    39    2
   113    38    43   am
   114    90    88   ar
   115    77    74    1
   116   130   131    2
   117   130   129    1
   118    52    50   ar
   119    52    53   ar
   120    86    88   ar
   121    86    85    1
   122   122   123    1
   123   122   125    1
   124    50    48   ar
   125    81    82    1
   126    43    44    1
   127   151   152    1
   128   123   128   am
   129   123   124    2
   130    61    60    1
   131    82    85    1
   132    82    83    1
   133   128   129    1
   134    54    53    1
   135    53    51   ar
   136   132   129    1
   137   132   133    1
   138    48    47    1
   139    48    49   ar
   140    74    75    1
   141    74    73    1
   142    47    44    1
   143   126   125    1
   144    60    59    1
   145    75    76    2
   146   125   127    1
   147    83    84    2
   148    44    45    1
   149    51    49   ar
   150   152   153    1
   151   133   134    1
   152    58    57    2
   153    73    66   am
   154    55    45   am
   155    55    56    1
   156    45    46    2
   157    59    56    1
   158   187   186    2
   159   188   189    1
   160   188   185    1
   161    67    66    2
   162    57    56    1
   163    57    64   am
   164    66    65    1
   165   161   159   am
   166   134   135   ar
   167   134   136   ar
   168   158   159    1
   169   158   155    1
   170   159   160    2
   171   186   185    1
   172   183   182    1
   173   154   155    1
   174    65    64    1
   175    65    68    1
   176   185   184    1
   177   184   180   am
   178   155   156    1
   179   182   179    1
   180   179   180    1
   181   179   178    1
   182   180   181    2
   183    68    69    1
   184    71    70    2
   185   173   172    2
   186   156   157    2
   187   156   162   am
   188    70    72   am
   189    70    69    1
   190   178   172   am
   191   172   171    1
   192   177   175   am
   193   162   163    1
   194   170   171    1
   195   170   164   am
   196   175   174    1
   197   175   176    2
   198   174   171    1
   199   163   164    1
   200   163   166    1
   201   164   165    2
   202   168   167   ar
   203   166   167    1
   204   167   169   ar
