@<TRIPOS>MOLECULE
tmp/1br5A00.pdb
 139 135 0 0 0
SMALL
GASTEIGER

@<TRIPOS>ATOM
      1  N         -4.9350    2.8330   12.4130 N.3    79  ALA79      -0.1231
      2  CA        -4.6240    1.4290   12.2490 C.3    79  ALA79       0.1694
      3  C         -3.2230    1.1700   11.7140 C.2    79  ALA79       0.2592
      4  O         -2.9580    0.0800   11.2430 O.2    79  ALA79      -0.2718
      5  CB        -5.6440    0.7460   11.3250 C.3    79  ALA79       0.0304
      6  N         -2.2730    2.0880   11.8280 N.am   80  TYR80      -0.1962
      7  CA        -0.8910    1.8700   11.4210 C.3    80  TYR80       0.1771
      8  C         -0.1500    0.8070   12.2320 C.2    80  TYR80       0.2619
      9  O         -0.2320    0.8080   13.4510 O.2    80  TYR80      -0.2715
     10  CB        -0.1140    3.1600   11.5480 C.3    80  TYR80       0.0574
     11  CG         1.0990    3.4010   10.6510 C.ar   80  TYR80      -0.0198
     12  CD1        0.9350    4.0400    9.4130 C.ar   80  TYR80      -0.0009
     13  CD2        2.3880    3.0330   11.0880 C.ar   80  TYR80      -0.0009
     14  CE1        2.0590    4.3350    8.6230 C.ar   80  TYR80       0.0417
     15  CE2        3.5130    3.3160   10.3040 C.ar   80  TYR80       0.0417
     16  CZ         3.3380    3.9600    9.0790 C.ar   80  TYR80       0.1957
     17  OH         4.4740    4.2520    8.3590 O.3    80  TYR80      -0.2866
     18  N          0.6230   -0.0830   11.6230 N.am   81  VAL81      -0.1977
     19  CA         1.4530   -1.0550   12.3240 C.3    81  VAL81       0.1596
     20  C          2.7010   -0.2680   12.7680 C.2    81  VAL81       0.2287
     21  O          3.5320    0.1240   11.9380 O.2    81  VAL81      -0.2864
     22  CB         1.8400   -2.2310   11.3710 C.3    81  VAL81       0.0276
     23  CG1        2.8220   -3.1970   12.0380 C.3    81  VAL81       0.0022
     24  CG2        0.5650   -2.9710   10.9740 C.3    81  VAL81       0.0022
     25  N          9.2350    0.8680   13.9670 N.3    93  PHE93      -0.1241
     26  CA         9.7580    1.6650   12.8640 C.3    93  PHE93       0.1605
     27  C         10.2910    3.0070   13.4070 C.2    93  PHE93       0.2264
     28  O         10.0620    3.3250   14.5690 O.2    93  PHE93      -0.2867
     29  CB         8.6370    1.8930   11.8430 C.3    93  PHE93       0.0534
     30  CG         8.2160    0.6290   11.0860 C.ar   93  PHE93      -0.0203
     31  CD1        9.0750    0.0640   10.1260 C.ar   93  PHE93      -0.0042
     32  CD2        6.9620    0.0480   11.3300 C.ar   93  PHE93      -0.0042
     33  CE1        8.6820   -1.0620    9.4150 C.ar   93  PHE93      -0.0003
     34  CE2        6.5780   -1.0910   10.6130 C.ar   93  PHE93      -0.0003
     35  CZ         7.4350   -1.6410    9.6580 C.ar   93  PHE93      -0.0000
     36  N          8.0340    3.0550    8.5480 N.3   121  GLY121     -0.1210
     37  CA         7.2890    1.9130    8.0620 C.3   121  GLY121      0.1956
     38  C          6.3550    2.1110    6.8970 C.2   121  GLY121      0.2612
     39  O          5.5490    1.2370    6.6350 O.2   121  GLY121     -0.2717
     40  N          6.3790    3.2330    6.2070 N.am  122  ASN122     -0.1960
     41  CA         5.4840    3.4160    5.0770 C.3   122  ASN122      0.1819
     42  C          6.0130    2.6470    3.8920 C.2   122  ASN122      0.2621
     43  O          7.2190    2.5160    3.6430 O.2   122  ASN122     -0.2715
     44  CB         5.3130    4.9060    4.6480 C.3   122  ASN122      0.1195
     45  CG         6.3630    5.8680    5.1810 C.2   122  ASN122      0.2630
     46  OD1        7.4830    5.9300    4.6950 O.2   122  ASN122     -0.2716
     47  ND2        6.1050    6.5970    6.2600 N.am  122  ASN122     -0.0877
     48  N          5.0230    2.0640    3.2260 N.am  123  TYR123     -0.1974
     49  CA         5.1770    1.3250    1.9710 C.3   123  TYR123      0.1639
     50  C          6.2960    1.8010    1.0700 C.2   123  TYR123      0.2290
     51  O          7.0250    0.9230    0.6210 O.2   123  TYR123     -0.2864
     52  CB         3.9010    1.3460    1.1100 C.3   123  TYR123      0.0560
     53  CG         2.6870    0.5920    1.6550 C.ar  123  TYR123     -0.0198
     54  CD1        2.8520   -0.6550    2.2740 C.ar  123  TYR123     -0.0009
     55  CD2        1.4150    1.1560    1.5140 C.ar  123  TYR123     -0.0009
     56  CE1        1.7480   -1.3450    2.7560 C.ar  123  TYR123      0.0417
     57  CE2        0.3140    0.4670    1.9920 C.ar  123  TYR123      0.0417
     58  CZ         0.4800   -0.7760    2.6090 C.ar  123  TYR123      0.1957
     59  OH        -0.6210   -1.4700    3.0620 O.3   123  TYR123     -0.2866
     60  N          4.6360   -3.5090   -4.1150 N.3   134  ARG134     -0.1245
     61  CA         3.3830   -4.1240   -3.6920 C.3   134  ARG134      0.1563
     62  C          2.6580   -4.9650   -4.7320 C.2   134  ARG134      0.2260
     63  O          2.1710   -6.0440   -4.4100 O.2   134  ARG134     -0.2867
     64  CB         2.4180   -3.0600   -3.2050 C.3   134  ARG134      0.0307
     65  CG         2.6080   -2.6790   -1.7790 C.3   134  ARG134      0.0489
     66  CD         1.6410   -1.5590   -1.4710 C.3   134  ARG134      0.2205
     67  NE         2.1390   -0.2460   -1.8530 N.pl3 134  ARG134     -0.0865
     68  CZ         1.3430    0.7920   -2.1040 C.cat 134  ARG134      0.5346
     69  NH1        0.0220    0.7060   -2.0410 N.pl3 134  ARG134      0.1354
     70  NH2        1.8930    1.9730   -2.3320 N.pl3 134  ARG134      0.1354
     71  N          0.7810   -5.7420    6.7520 N.3   172  ILE172     -0.1245
     72  CA         0.0160   -4.4960    6.7990 C.3   172  ILE172      0.1561
     73  C         -1.2730   -4.6050    5.9580 C.2   172  ILE172      0.2260
     74  O         -2.3350   -4.1750    6.3920 O.2   172  ILE172     -0.2867
     75  CB         0.9320   -3.3430    6.3050 C.3   172  ILE172      0.0252
     76  CG1        2.1440   -3.1250    7.2390 C.3   172  ILE172      0.0019
     77  CG2        0.0890   -2.0790    6.2280 C.3   172  ILE172      0.0019
     78  CD1        3.4000   -2.4580    6.5930 C.3   172  ILE172      0.0001
     79  N         -4.1760   -4.2780    8.5250 N.3   176  SER176     -0.1202
     80  CA        -4.6860   -2.9100    8.6000 C.3   176  SER176      0.2020
     81  C         -5.4960   -2.4560    7.3800 C.2   176  SER176      0.2618
     82  O         -6.4670   -1.7170    7.5360 O.2   176  SER176     -0.2717
     83  CB        -3.4980   -1.9750    8.8530 C.3   176  SER176      0.2103
     84  OG        -2.6730   -2.3590    9.9490 O.3   176  SER176     -0.2182
     85  N         -5.2100   -2.9020    6.1540 N.am  177  GLU177     -0.1979
     86  CA        -5.9980   -2.5600    4.9810 C.3   177  GLU177      0.1602
     87  C         -7.3300   -3.2990    4.9430 C.2   177  GLU177      0.2287
     88  O         -8.3540   -2.7290    4.5860 O.2   177  GLU177     -0.2864
     89  CB        -5.1730   -2.8420    3.7030 C.3   177  GLU177      0.0415
     90  CG        -3.8650   -2.0520    3.5650 C.3   177  GLU177      0.1163
     91  CD        -3.8940   -0.5160    3.6160 C.2   177  GLU177      0.3649
     92  OE1       -4.9200    0.1450    3.7050 O.co2 177  GLU177     -0.2457
     93  OE2       -2.8320    0.0650    3.5540 O.co2 177  GLU177     -0.2457
     94  N         -9.4550   -1.2440    7.2310 N.3   180  ARG180     -0.1245
     95  CA        -9.7930    0.0250    6.6170 C.3   180  ARG180      0.1563
     96  C        -10.8370   -0.1480    5.5520 C.2   180  ARG180      0.2260
     97  O        -11.7050    0.6940    5.4190 O.2   180  ARG180     -0.2867
     98  CB        -8.6070    0.6720    5.9470 C.3   180  ARG180      0.0307
     99  CG        -7.6080    1.1250    6.9610 C.3   180  ARG180      0.0489
    100  CD        -6.3660    1.6360    6.3050 C.3   180  ARG180      0.2205
    101  NE        -5.4060    2.1250    7.2810 N.pl3 180  ARG180     -0.0865
    102  CZ        -4.1500    1.6620    7.3410 C.cat 180  ARG180      0.5346
    103  NH1       -3.6770    0.7190    6.5060 N.pl3 180  ARG180      0.1354
    104  NH2       -3.3380    2.1810    8.2590 N.pl3 180  ARG180      0.1354
    105  N         -5.6000    1.6830   -0.9870 N.3   208  GLU208     -0.1231
    106  CA        -4.5370    1.8400   -0.0010 C.3   208  GLU208      0.1699
    107  C         -3.9650    3.2390   -0.0580 C.2   208  GLU208      0.2592
    108  O         -3.7270    3.8840    0.9590 O.2   208  GLU208     -0.2718
    109  CB        -3.3860    0.8790   -0.2620 C.3   208  GLU208      0.0402
    110  CG        -3.7020   -0.5400    0.0790 C.3   208  GLU208      0.1161
    111  CD        -2.7800   -1.5890   -0.4860 C.2   208  GLU208      0.3649
    112  OE1       -1.6950   -1.2950   -0.9620 O.co2 208  GLU208     -0.2457
    113  OE2       -3.1920   -2.7340   -0.4500 O.co2 208  GLU208     -0.2457
    114  N         -3.6910    3.6800   -1.2760 N.am  209  ASN209     -0.1974
    115  CA        -3.0860    4.9730   -1.4810 C.3   209  ASN209      0.1688
    116  C         -3.9470    6.1890   -1.2870 C.2   209  ASN209      0.2292
    117  O         -3.3980    7.2760   -1.0510 O.2   209  ASN209     -0.2864
    118  CB        -2.5300    5.0740   -2.8560 C.3   209  ASN209      0.1181
    119  CG        -1.4180    4.1100   -3.1430 C.2   209  ASN209      0.2629
    120  OD1       -1.1140    3.8470   -4.3030 O.2   209  ASN209     -0.2716
    121  ND2       -0.7620    3.5350   -2.1450 N.am  209  ASN209     -0.0877
    122  N         -6.8530    6.3360    0.9890 N.3   211  TRP211     -0.1227
    123  CA        -7.6090    6.3530    2.2190 C.3   211  TRP211      0.1737
    124  C         -7.6460    7.6760    2.9700 C.2   211  TRP211      0.2596
    125  O         -8.6900    8.0640    3.5050 O.2   211  TRP211     -0.2718
    126  CB        -7.0430    5.2670    3.0900 C.3   211  TRP211      0.0564
    127  CG        -7.7500    5.0170    4.4170 C.ar  211  TRP211      0.0003
    128  CD1       -9.0470    4.5770    4.4650 C.ar  211  TRP211      0.0946
    129  CD2       -7.1550    5.1960    5.8150 C.ar  211  TRP211      0.0152
    130  NE1       -9.4000    4.4400    5.7130 N.ar  211  TRP211     -0.2442
    131  CE2       -8.4340    4.7520    6.5910 C.ar  211  TRP211      0.0810
    132  CE3       -6.0220    5.5670    6.5460 C.ar  211  TRP211      0.0012
    133  CZ2       -8.4130    4.7340    7.9820 C.ar  211  TRP211      0.0191
    134  CZ3       -6.0770    5.5250    7.9470 C.ar  211  TRP211      0.0001
    135  CH2       -7.2360    5.1130    8.6330 C.ar  211  TRP211      0.0015
    136  N         -6.5540    8.4270    3.0170 N.am  212  GLY212     -0.1957
    137  CA        -6.5240    9.7040    3.7030 C.3   212  GLY212      0.1869
    138  C         -7.4460   10.7020    3.0380 C.2   212  GLY212      0.2309
    139  O         -8.3230   11.3260    3.6410 O.2   212  GLY212     -0.2863
@<TRIPOS>BOND
     1    62    63    2
     2    62    61    1
     3   120   119    2
     4    60    61    1
     5    61    64    1
     6    64    65    1
     7   119   118    1
     8   119   121   am
     9   118   115    1
    10    70    68    1
    11    68    69    1
    12    68    67    2
    13    67    66    1
    14    65    66    1
    15   115   116    1
    16   115   114    1
    17   116   117    2
    18   114   107   am
    19   105   106    1
    20   112   111   ar
    21   111   113   ar
    22   111   110    1
    23   109   106    1
    24   109   110    1
    25   107   106    1
    26   107   108    2
    27    51    50    2
    28   122   123    1
    29    50    49    1
    30    52    53    1
    31    52    49    1
    32    55    53   ar
    33    55    57   ar
    34    53    54   ar
    35    49    48    1
    36    57    58   ar
    37   123   124    1
    38   123   126    1
    39    54    56   ar
    40    58    56   ar
    41    58    59    1
    42   124   136   am
    43   124   125    2
    44   136   137    1
    45   138   139    2
    46   138   137    1
    47   126   127    1
    48    48    42   am
    49    93    91   ar
    50    90    91    1
    51    90    89    1
    52    91    92   ar
    53    43    42    2
    54    89    86    1
    55    42    41    1
    56   127   128   ar
    57   127   129   ar
    58   128   130   ar
    59    88    87    2
    60    44    41    1
    61    44    45    1
    62    46    45    2
    63    87    86    1
    64    86    85    1
    65    41    40    1
    66    45    47   am
    67    97    96    2
    68    96    95    1
    69   130   131   ar
    70   129   132   ar
    71   129   131   ar
    72    98    95    1
    73    98    99    1
    74    73    74    2
    75    73    72    1
    76    85    81   am
    77    40    38   am
    78    77    75    1
    79    75    72    1
    80    75    76    1
    81   100    99    1
    82   100   101    1
    83   103   102    1
    84   132   134   ar
    85   131   133   ar
    86    78    76    1
    87    95    94    1
    88    39    38    2
    89    71    72    1
    90    38    37    1
    91   101   102    2
    92   102   104    1
    93    81    82    2
    94    81    80    1
    95   134   135   ar
    96   133   135   ar
    97    37    36    1
    98    17    16    1
    99    79    80    1
   100    80    83    1
   101    14    16   ar
   102    14    12   ar
   103    83    84    1
   104    16    15   ar
   105    12    11   ar
   106    33    35   ar
   107    33    31   ar
   108    35    34   ar
   109    31    30   ar
   110    15    13   ar
   111    34    32   ar
   112    11    13   ar
   113    11    10    1
   114    24    22    1
   115    30    32   ar
   116    30    29    1
   117     4     3    2
   118     5     2    1
   119    22    23    1
   120    22    19    1
   121     7    10    1
   122     7     6    1
   123     7     8    1
   124    18     8   am
   125    18    19    1
   126     3     6   am
   127     3     2    1
   128    29    26    1
   129    21    20    2
   130     8     9    2
   131     2     1    1
   132    19    20    1
   133    26    27    1
   134    26    25    1
   135    27    28    2
