@<TRIPOS>MOLECULE
tmp/1br6A00.pdb
 154 148 0 0 0
SMALL
GASTEIGER

@<TRIPOS>ATOM
      1  N         -4.3820    5.9220   15.8720 N.3    79  ASN79      -0.1240
      2  CA        -4.2670    5.6920   14.4470 C.3    79  ASN79       0.1653
      3  C         -4.1160    4.2280   14.1070 C.2    79  ASN79       0.2266
      4  O         -3.8650    3.9210   12.9340 O.2    79  ASN79      -0.2867
      5  CB        -3.0550    6.4920   13.9140 C.3    79  ASN79       0.1155
      6  CG        -1.7400    6.1160   14.6000 C.2    79  ASN79       0.2627
      7  OD1       -1.6780    5.3070   15.5520 O.2    79  ASN79      -0.2716
      8  ND2       -0.6370    6.6760   14.1500 N.am   79  ASN79      -0.0877
      9  N         -1.7650    2.2650   14.6070 N.3    81  TYR81      -0.1227
     10  CA        -0.4590    1.9830   14.0600 C.3    81  TYR81       0.1736
     11  C          0.2800    1.0320   15.0090 C.2    81  TYR81       0.2595
     12  O          0.2040    1.1870   16.2310 O.2    81  TYR81      -0.2718
     13  CB         0.2040    3.3530   13.9180 C.3    81  TYR81       0.0548
     14  CG         1.5460    3.4700   13.2020 C.ar   81  TYR81      -0.0200
     15  CD1        2.7340    3.2340   13.9180 C.ar   81  TYR81      -0.0009
     16  CD2        1.5860    3.8910   11.8680 C.ar   81  TYR81      -0.0009
     17  CE1        3.9640    3.4040   13.2960 C.ar   81  TYR81       0.0417
     18  CE2        2.8190    4.0630   11.2430 C.ar   81  TYR81       0.0417
     19  CZ         3.9960    3.8130   11.9660 C.ar   81  TYR81       0.1957
     20  OH         5.2400    4.0150   11.3730 O.3    81  TYR81      -0.2866
     21  N          1.0300    0.0600   14.4920 N.am   82  VAL82      -0.1980
     22  CA         1.8090   -0.8560   15.3070 C.3    82  VAL82       0.1595
     23  C          3.1540   -0.1430   15.5640 C.2    82  VAL82       0.2287
     24  O          3.9620    0.0620   14.6410 O.2    82  VAL82      -0.2864
     25  CB         2.0470   -2.1780   14.5430 C.3    82  VAL82       0.0276
     26  CG1        2.8780   -3.1300   15.4090 C.3    82  VAL82       0.0022
     27  CG2        0.6930   -2.7650   14.1250 C.3    82  VAL82       0.0022
     28  N          9.6860    1.0300   16.6070 N.3    94  PHE94      -0.1241
     29  CA        10.0510    1.8220   15.4400 C.3    94  PHE94       0.1605
     30  C         10.3700    3.2180   15.9810 C.2    94  PHE94       0.2264
     31  O          9.8360    3.6560   17.0140 O.2    94  PHE94      -0.2867
     32  CB         8.9030    1.9450   14.4670 C.3    94  PHE94       0.0534
     33  CG         8.5830    0.6470   13.7600 C.ar   94  PHE94      -0.0203
     34  CD1        9.5500    0.0060   12.9640 C.ar   94  PHE94      -0.0042
     35  CD2        7.3100    0.0810   13.8900 C.ar   94  PHE94      -0.0042
     36  CE1        9.2310   -1.1910   12.3080 C.ar   94  PHE94      -0.0003
     37  CE2        7.0010   -1.1130   13.2270 C.ar   94  PHE94      -0.0003
     38  CZ         7.9630   -1.7450   12.4430 C.ar   94  PHE94      -0.0000
     39  N          8.4190    9.5640   15.6490 N.3    97  ASP97      -0.1239
     40  CA         8.7050   10.7300   14.8300 C.3    97  ASP97       0.1674
     41  C          8.3540   12.0900   15.4310 C.2    97  ASP97       0.2266
     42  O          8.0380   13.0490   14.7330 O.2    97  ASP97      -0.2867
     43  CB         8.0060   10.5300   13.4810 C.3    97  ASP97       0.1410
     44  CG         6.4950   10.3390   13.5090 C.2    97  ASP97       0.3668
     45  OD1        5.8470   10.5980   14.5300 O.co2  97  ASP97      -0.2456
     46  OD2        5.9670    9.9380   12.4750 O.co2  97  ASP97      -0.2456
     47  N          8.3520    3.1630   10.9040 N.3   122  GLY122     -0.1210
     48  CA         7.6710    1.9360   10.5530 C.3   122  GLY122      0.1956
     49  C          6.6590    2.0540    9.4490 C.2   122  GLY122      0.2612
     50  O          5.7770    1.2050    9.3490 O.2   122  GLY122     -0.2717
     51  N          6.7750    3.0650    8.6090 N.am  123  ASN123     -0.1960
     52  CA         5.8040    3.2520    7.5420 C.3   123  ASN123      0.1819
     53  C          6.1000    2.2860    6.4010 C.2   123  ASN123      0.2621
     54  O          7.2750    1.8900    6.2050 O.2   123  ASN123     -0.2715
     55  CB         5.8630    4.6810    7.0610 C.3   123  ASN123      0.1195
     56  CG         7.2580    5.1320    6.6660 C.2   123  ASN123      0.2630
     57  OD1        7.9460    4.5260    5.8560 O.2   123  ASN123     -0.2716
     58  ND2        7.7670    6.2340    7.1860 N.am  123  ASN123     -0.0877
     59  N          5.0800    1.9250    5.6030 N.am  124  TYR124     -0.1960
     60  CA         5.2160    0.9600    4.4940 C.3   124  TYR124      0.1771
     61  C          6.3850    1.2330    3.5640 C.2   124  TYR124      0.2619
     62  O          7.1120    0.3610    3.0800 O.2   124  TYR124     -0.2715
     63  CB         3.9950    0.9260    3.5970 C.3   124  TYR124      0.0574
     64  CG         2.7940    0.2260    4.2200 C.ar  124  TYR124     -0.0198
     65  CD1        2.9870   -0.9550    4.9480 C.ar  124  TYR124     -0.0009
     66  CD2        1.5040    0.7480    4.0620 C.ar  124  TYR124     -0.0009
     67  CE1        1.8940   -1.6030    5.5100 C.ar  124  TYR124      0.0417
     68  CE2        0.4100    0.0870    4.6250 C.ar  124  TYR124      0.0417
     69  CZ         0.6190   -1.0840    5.3420 C.ar  124  TYR124      0.1957
     70  OH        -0.4480   -1.8040    5.8320 O.3   124  TYR124     -0.2866
     71  N          6.5820    2.5260    3.4390 N.am  125  ASP125     -0.1971
     72  CA         7.5810    3.1720    2.6110 C.3   125  ASP125      0.1709
     73  C          8.9960    2.6030    2.9740 C.2   125  ASP125      0.2293
     74  O          9.7530    2.0490    2.1570 O.2   125  ASP125     -0.2864
     75  CB         7.3380    4.7270    2.8940 C.3   125  ASP125      0.1436
     76  CG         5.9270    5.2730    3.3800 C.2   125  ASP125      0.3671
     77  OD1        4.8680    4.6200    3.2930 O.co2 125  ASP125     -0.2456
     78  OD2        5.8780    6.3940    3.9010 O.co2 125  ASP125     -0.2456
     79  N          0.7330   -5.8690    9.9840 N.3   173  ILE173     -0.1245
     80  CA         0.0610   -4.5930    9.8800 C.3   173  ILE173      0.1561
     81  C         -1.1890   -4.7350    9.0510 C.2   173  ILE173      0.2260
     82  O         -2.2500   -4.3300    9.5010 O.2   173  ILE173     -0.2867
     83  CB         1.0620   -3.5530    9.2810 C.3   173  ILE173      0.0252
     84  CG1        2.1320   -3.2130   10.3340 C.3   173  ILE173      0.0019
     85  CG2        0.3500   -2.2650    8.9240 C.3   173  ILE173      0.0019
     86  CD1        3.4150   -2.6100    9.6990 C.3   173  ILE173      0.0001
     87  N         -3.9760   -4.1250   11.7440 N.3   177  SER177     -0.1202
     88  CA        -4.3280   -2.7050   11.7230 C.3   177  SER177      0.2020
     89  C         -5.2290   -2.3330   10.5600 C.2   177  SER177      0.2618
     90  O         -6.2250   -1.6420   10.7580 O.2   177  SER177     -0.2717
     91  CB        -3.0950   -1.8270   11.6310 C.3   177  SER177      0.2103
     92  OG        -2.2290   -2.1200   12.6960 O.3   177  SER177     -0.2182
     93  N         -4.9140   -2.7850    9.3470 N.am  178  GLU178     -0.1979
     94  CA        -5.7150   -2.4470    8.1950 C.3   178  GLU178      0.1602
     95  C         -7.0740   -3.1090    8.1810 C.2   178  GLU178      0.2287
     96  O         -8.0580   -2.5170    7.7400 O.2   178  GLU178     -0.2864
     97  CB        -4.9860   -2.8140    6.9000 C.3   178  GLU178      0.0415
     98  CG        -3.6530   -2.1140    6.7180 C.3   178  GLU178      0.1163
     99  CD        -3.6610   -0.5940    6.5660 C.2   178  GLU178      0.3649
    100  OE1       -4.6470    0.0800    6.8580 O.co2 178  GLU178     -0.2457
    101  OE2       -2.6340   -0.0740    6.1490 O.co2 178  GLU178     -0.2457
    102  N         -9.0250   -1.1070   10.4190 N.3   181  ARG181     -0.1245
    103  CA        -9.3540    0.1760    9.8140 C.3   181  ARG181      0.1563
    104  C        -10.4010    0.0930    8.7130 C.2   181  ARG181      0.2260
    105  O        -11.1980    1.0380    8.5470 O.2   181  ARG181     -0.2867
    106  CB        -8.1010    0.8290    9.2280 C.3   181  ARG181      0.0307
    107  CG        -7.0260    1.2610   10.2280 C.3   181  ARG181      0.0489
    108  CD        -5.8690    1.8320    9.4460 C.3   181  ARG181      0.2205
    109  NE        -4.8190    2.3090   10.3280 N.pl3 181  ARG181     -0.0865
    110  CZ        -3.5290    1.9590   10.1890 C.cat 181  ARG181      0.5346
    111  NH1       -3.1510    1.1210    9.2290 N.pl3 181  ARG181      0.1354
    112  NH2       -2.6190    2.4330   11.0440 N.pl3 181  ARG181      0.1354
    113  N         -5.1870    1.3100    1.6610 N.3   209  GLU209     -0.1231
    114  CA        -4.1490    1.4220    2.7060 C.3   209  GLU209      0.1699
    115  C         -3.3690    2.7160    2.5280 C.2   209  GLU209      0.2592
    116  O         -3.0700    3.4020    3.4980 O.2   209  GLU209     -0.2718
    117  CB        -3.1070    0.2850    2.6790 C.3   209  GLU209      0.0402
    118  CG        -3.6820   -1.0950    2.9830 C.3   209  GLU209      0.1161
    119  CD        -2.7890   -2.2980    2.6880 C.2   209  GLU209      0.3649
    120  OE1       -1.7170   -2.1230    2.1260 O.co2 209  GLU209     -0.2457
    121  OE2       -3.1570   -3.4250    3.0160 O.co2 209  GLU209     -0.2457
    122  N         -3.0240    3.1240    1.3180 N.am  210  ASN210     -0.1974
    123  CA        -2.3470    4.4020    1.1640 C.3   210  ASN210      0.1688
    124  C         -3.2800    5.5800    1.3680 C.2   210  ASN210      0.2292
    125  O         -2.8480    6.6330    1.8270 O.2   210  ASN210     -0.2864
    126  CB        -1.7440    4.5560   -0.2120 C.3   210  ASN210      0.1181
    127  CG        -0.7250    3.5020   -0.5810 C.2   210  ASN210      0.2629
    128  OD1       -0.6450    3.1630   -1.7520 O.2   210  ASN210     -0.2716
    129  ND2        0.0790    2.8900    0.2780 N.am  210  ASN210     -0.0877
    130  N         -6.0520    5.9840    3.5240 N.3   212  TRP212     -0.1227
    131  CA        -6.7670    6.1400    4.7920 C.3   212  TRP212      0.1737
    132  C         -6.7260    7.5290    5.4000 C.2   212  TRP212      0.2596
    133  O         -7.7830    8.0830    5.7310 O.2   212  TRP212     -0.2718
    134  CB        -6.2460    5.1800    5.8490 C.3   212  TRP212      0.0564
    135  CG        -7.0970    5.0960    7.1150 C.ar  212  TRP212      0.0003
    136  CD1       -8.4200    4.7030    7.0970 C.ar  212  TRP212      0.0946
    137  CD2       -6.6520    5.3230    8.3890 C.ar  212  TRP212      0.0152
    138  NE1       -8.7960    4.6380    8.3560 N.ar  212  TRP212     -0.2442
    139  CE2       -7.7780    4.9910    9.1550 C.ar  212  TRP212      0.0810
    140  CE3       -5.4730    5.7140    9.0100 C.ar  212  TRP212      0.0012
    141  CZ2       -7.7240    5.0710   10.5520 C.ar  212  TRP212      0.0191
    142  CZ3       -5.4370    5.7800   10.4000 C.ar  212  TRP212      0.0001
    143  CH2       -6.5400    5.4890   11.1710 C.ar  212  TRP212      0.0015
    144  N         -5.5560    8.1520    5.5190 N.am  213  GLY213     -0.1957
    145  CA        -5.4720    9.4900    6.1140 C.3   213  GLY213      0.1869
    146  C         -6.2510   10.5240    5.3010 C.2   213  GLY213      0.2309
    147  O         -6.9840   11.3690    5.8300 O.2   213  GLY213     -0.2863
    148  N         -9.0310    8.2410   11.4340 N.3   257  VAL257     -0.1245
    149  CA        -8.2330    8.9900   12.3870 C.3   257  VAL257      0.1561
    150  C         -8.8920   10.3730   12.5770 C.2   257  VAL257      0.2260
    151  O         -9.5000   10.8930   11.6340 O.2   257  VAL257     -0.2867
    152  CB        -6.7310    9.0370   11.8300 C.3   257  VAL257      0.0252
    153  CG1       -6.6530    9.5460   10.3910 C.3   257  VAL257      0.0019
    154  CG2       -5.8900    9.9300   12.7110 C.3   257  VAL257      0.0019
@<TRIPOS>BOND
     1   128   127    2
     2   127   126    1
     3   127   129   am
     4   126   123    1
     5   123   122    1
     6   123   124    1
     7   122   115   am
     8   124   125    2
     9   113   114    1
    10   120   119   ar
    11    74    73    2
    12   115   114    1
    13   115   116    2
    14    72    75    1
    15    72    73    1
    16    72    71    1
    17   117   114    1
    18   117   118    1
    19   119   118    1
    20   119   121   ar
    21    75    76    1
    22    62    61    2
    23    77    76   ar
    24    76    78   ar
    25    71    61   am
    26   130   131    1
    27    61    60    1
    28    63    64    1
    29    63    60    1
    30    66    64   ar
    31    66    68   ar
    32    64    65   ar
    33    60    59    1
    34    68    69   ar
    35   131   132    1
    36   131   134    1
    37    65    67   ar
    38   146   147    2
    39   146   145    1
    40    69    67   ar
    41    69    70    1
    42   132   144   am
    43   132   133    2
    44   144   145    1
    45    59    53   am
    46   134   135    1
    47    57    56    2
    48   101    99   ar
    49    54    53    2
    50    53    52    1
    51    99    98    1
    52    99   100   ar
    53    56    55    1
    54    56    58   am
    55    98    97    1
    56    97    94    1
    57    55    52    1
    58   136   135   ar
    59   136   138   ar
    60   135   137   ar
    61    52    51    1
    62    96    95    2
    63    95    94    1
    64    94    93    1
    65   138   139   ar
    66   137   140   ar
    67   137   139   ar
    68   105   104    2
    69    51    49   am
    70   104   103    1
    71    85    83    1
    72   140   142   ar
    73    81    82    2
    74    81    80    1
    75   139   141   ar
    76   106   103    1
    77   106   107    1
    78   111   110    1
    79    83    80    1
    80    83    84    1
    81    93    89   am
    82    50    49    2
    83   108   107    1
    84   108   109    1
    85    49    48    1
    86    86    84    1
    87   103   102    1
    88    80    79    1
    89   110   109    2
    90   110   112    1
    91   153   152    1
    92   142   143   ar
    93   141   143   ar
    94    48    47    1
    95    89    90    2
    96    89    88    1
    97    18    16   ar
    98    18    19   ar
    99    20    19    1
   100   148   149    1
   101    91    88    1
   102    91    92    1
   103   151   150    2
   104    88    87    1
   105   152   149    1
   106   152   154    1
   107    16    14   ar
   108    19    17   ar
   109    36    38   ar
   110    36    34   ar
   111   149   150    1
   112    38    37   ar
   113    46    44   ar
   114     4     3    2
   115    34    33   ar
   116    14    15   ar
   117    14    13    1
   118    37    35   ar
   119    17    15   ar
   120    43    44    1
   121    43    40    1
   122    44    45   ar
   123    33    35   ar
   124    33    32    1
   125     5     2    1
   126     5     6    1
   127    13    10    1
   128    10     9    1
   129    10    11    1
   130     3     2    1
   131    27    25    1
   132     8     6   am
   133     2     1    1
   134    32    29    1
   135    21    11   am
   136    21    22    1
   137    25    22    1
   138    25    26    1
   139     6     7    2
   140    24    23    2
   141    42    41    2
   142    40    41    1
   143    40    39    1
   144    11    12    2
   145    22    23    1
   146    29    30    1
   147    29    28    1
   148    30    31    2
