@<TRIPOS>MOLECULE
tmp/1brdA00.pdb
 190 186 0 0 0
SMALL
GASTEIGER

@<TRIPOS>ATOM
      1  N         12.3540   -4.4910   -1.1360 N.3    62  TYR62      -0.1241
      2  CA        11.9900   -3.2650   -0.4360 C.3    62  TYR62       0.1605
      3  C         10.8340   -3.5470    0.5210 C.2    62  TYR62       0.2264
      4  O         10.9330   -3.2760    1.7230 O.2    62  TYR62      -0.2867
      5  CB        11.6180   -2.1320   -1.4050 C.3    62  TYR62       0.0534
      6  CG        12.6760   -1.7050   -2.3880 C.ar   62  TYR62      -0.0201
      7  CD1       13.9820   -1.4000   -1.9800 C.ar   62  TYR62      -0.0009
      8  CD2       12.3790   -1.5730   -3.7420 C.ar   62  TYR62      -0.0009
      9  CE1       14.9650   -1.0080   -2.8880 C.ar   62  TYR62       0.0417
     10  CE2       13.3430   -1.1830   -4.6680 C.ar   62  TYR62       0.0417
     11  CZ        14.6360   -0.8990   -4.2390 C.ar   62  TYR62       0.1957
     12  OH        15.5620   -0.5110   -5.1650 O.3    62  TYR62      -0.2866
     13  N         11.8090   -5.9020    3.3460 N.3    65  TRP65      -0.1241
     14  CA        12.8170   -5.0930    4.0280 C.3    65  TRP65       0.1605
     15  C         12.0970   -4.1110    4.9550 C.2    65  TRP65       0.2264
     16  O         12.3710   -4.0380    6.1520 O.2    65  TRP65      -0.2867
     17  CB        13.6100   -4.3030    3.0110 C.3    65  TRP65       0.0550
     18  CG        14.9080   -4.7720    2.4860 C.ar   65  TRP65       0.0003
     19  CD1       15.5440   -5.9700    2.6570 C.ar   65  TRP65       0.0946
     20  CD2       15.7600   -3.9850    1.6250 C.ar   65  TRP65       0.0152
     21  NE1       16.7390   -5.9720    1.9770 N.ar   65  TRP65      -0.2442
     22  CE2       16.8930   -4.7730    1.3360 C.ar   65  TRP65       0.0810
     23  CE3       15.6680   -2.7050    1.0930 C.ar   65  TRP65       0.0012
     24  CZ2       17.9170   -4.3070    0.5280 C.ar   65  TRP65       0.0191
     25  CZ3       16.6910   -2.2430    0.2950 C.ar   65  TRP65       0.0001
     26  CH2       17.8030   -3.0270    0.0150 C.ar   65  TRP65       0.0015
     27  N         10.4000   -6.0230    7.8770 N.3    68  THR68      -0.1203
     28  CA        11.3410   -6.6310    8.8310 C.3    68  THR68       0.1994
     29  C         12.1570   -5.6250    9.6250 C.2    68  THR68       0.2618
     30  O         12.5250   -5.8960   10.7830 O.2    68  THR68      -0.2717
     31  CB        12.2640   -7.6940    8.1230 C.3    68  THR68       0.1784
     32  OG1       13.2430   -8.1380    9.1090 O.3    68  THR68      -0.2211
     33  CG2       12.9140   -7.1190    6.8680 C.3    68  THR68       0.0376
     34  N         12.4320   -4.4910    9.0250 N.am   69  THR69      -0.1952
     35  CA        13.2100   -3.3970    9.5880 C.3    69  THR69       0.1897
     36  C         12.7650   -2.8090   10.9090 C.2    69  THR69       0.2313
     37  O         13.5380   -2.8270   11.8910 O.2    69  THR69      -0.2863
     38  CB        13.3900   -2.2710    8.4870 C.3    69  THR69       0.1794
     39  OG1       14.1130   -2.9340    7.4030 O.3    69  THR69      -0.2208
     40  CG2       14.1150   -1.0330    9.0190 C.3    69  THR69       0.0378
     41  N         12.7850   -5.4690   13.4410 N.3    72  LEU72      -0.1245
     42  CA        14.1610   -5.6420   13.9110 C.3    72  LEU72       0.1561
     43  C         14.5180   -4.5410   14.9090 C.2    72  LEU72       0.2260
     44  O         15.0130   -4.8390   16.0060 O.2    72  LEU72      -0.2867
     45  CB        15.1040   -5.6870   12.7080 C.3    72  LEU72       0.0270
     46  CG        15.8920   -6.9480   12.4060 C.3    72  LEU72       0.0019
     47  CD1       15.0250   -8.0960   11.9110 C.3    72  LEU72       0.0001
     48  CD2       16.9660   -6.6210   11.3630 C.3    72  LEU72       0.0001
     49  N         12.8640    4.3830    6.3410 N.3    90  ASP90      -0.1239
     50  CA        12.7770    3.1140    5.6070 C.3    90  ASP90       0.1674
     51  C         11.8230    3.2410    4.4150 C.2    90  ASP90       0.2266
     52  O         12.1000    2.8230    3.2820 O.2    90  ASP90      -0.2867
     53  CB        12.3530    2.0540    6.6240 C.3    90  ASP90       0.1410
     54  CG        12.8130    0.6390    6.3630 C.2    90  ASP90       0.3668
     55  OD1       14.0120    0.3910    6.1490 O.co2  90  ASP90      -0.2456
     56  OD2       11.9370   -0.2500    6.4190 O.co2  90  ASP90      -0.2456
     57  N         13.3490    5.5410    1.9320 N.3    93  MET93      -0.1245
     58  CA        14.3070    4.7030    1.2250 C.3    93  MET93       0.1570
     59  C         13.7020    3.9030    0.0710 C.2    93  MET93       0.2261
     60  O         14.2490    3.9410   -1.0430 O.2    93  MET93      -0.2867
     61  CB        14.9920    3.7100    2.1720 C.3    93  MET93       0.0387
     62  CG        15.7460    4.3340    3.3060 C.3    93  MET93       0.0595
     63  SD        16.0420    3.0870    4.6060 S.3    93  MET93      -0.1393
     64  CE        16.5070    4.1180    6.0030 C.3    93  MET93       0.0692
     65  N         12.5460    6.0580   -2.9650 N.3    96  THR96      -0.1203
     66  CA        13.7420    6.4200   -3.6900 C.3    96  THR96       0.1994
     67  C         14.2890    5.4650   -4.7400 C.2    96  THR96       0.2618
     68  O         14.3990    5.7940   -5.9310 O.2    96  THR96      -0.2717
     69  CB        14.9240    6.6710   -2.6430 C.3    96  THR96       0.1784
     70  OG1       15.5630    5.3990   -2.3380 O.3    96  THR96      -0.2211
     71  CG2       14.4630    7.3750   -1.3690 C.3    96  THR96       0.0376
     72  N         14.6720    4.2900   -4.2780 N.am   97  GLY97      -0.1956
     73  CA        15.2530    3.2000   -5.0630 C.3    97  GLY97       0.1869
     74  C         14.3160    2.8020   -6.2010 C.2    97  GLY97       0.2309
     75  O         14.7230    2.6670   -7.3620 O.2    97  GLY97      -0.2863
     76  N         17.9290    8.9530   -2.3780 N.3   105  TRP105     -0.1241
     77  CA        18.7400    8.1980   -1.4150 C.3   105  TRP105      0.1605
     78  C         19.4260    9.0850   -0.3820 C.2   105  TRP105      0.2264
     79  O         19.4970    8.6860    0.7990 O.2   105  TRP105     -0.2867
     80  CB        19.7290    7.2960   -2.1580 C.3   105  TRP105      0.0550
     81  CG        20.7580    6.6580   -1.2920 C.ar  105  TRP105      0.0003
     82  CD1       20.5570    5.7200   -0.3200 C.ar  105  TRP105      0.0946
     83  CD2       22.1710    6.9210   -1.3030 C.ar  105  TRP105      0.0152
     84  NE1       21.7490    5.3720    0.2660 N.ar  105  TRP105     -0.2442
     85  CE2       22.7550    6.0970   -0.3150 C.ar  105  TRP105      0.0810
     86  CE3       22.9790    7.7700   -2.0460 C.ar  105  TRP105      0.0012
     87  CZ2       24.1180    6.0990   -0.0490 C.ar  105  TRP105      0.0191
     88  CZ3       24.3330    7.7650   -1.7850 C.ar  105  TRP105      0.0001
     89  CH2       24.9010    6.9520   -0.8080 C.ar  105  TRP105      0.0015
     90  N         17.7190    9.2230    2.7800 N.3   108  SER108     -0.1202
     91  CA        17.6620    7.8660    3.3260 C.3   108  SER108      0.2020
     92  C         18.8270    7.6380    4.2920 C.2   108  SER108      0.2619
     93  O         18.6470    7.2230    5.4450 O.2   108  SER108     -0.2717
     94  CB        17.7730    6.8090    2.2400 C.3   108  SER108      0.2103
     95  OG        17.1250    7.1970    1.0510 O.3   108  SER108     -0.2182
     96  N         20.0140    7.9200    3.7800 N.am  109  THR109     -0.1952
     97  CA        21.2770    7.7700    4.5160 C.3   109  THR109      0.1897
     98  C         21.2680    8.6260    5.7720 C.2   109  THR109      0.2313
     99  O         21.7490    8.1890    6.8320 O.2   109  THR109     -0.2863
    100  CB        22.5050    8.0040    3.5650 C.3   109  THR109      0.1794
    101  OG1       21.9350    8.1110    2.2220 O.3   109  THR109     -0.2208
    102  CG2       23.5340    6.8730    3.6500 C.3   109  THR109      0.0378
    103  N         19.1340    6.8300    8.2070 N.3   112  MET112     -0.1245
    104  CA        19.8430    5.6160    8.6290 C.3   112  MET112      0.1570
    105  C         20.7530    5.9270    9.8180 C.2   112  MET112      0.2261
    106  O         20.7950    5.1560   10.7900 O.2   112  MET112     -0.2867
    107  CB        20.6140    5.0190    7.4590 C.3   112  MET112      0.0387
    108  CG        21.2120    3.6860    7.8440 C.3   112  MET112      0.0595
    109  SD        22.3320    3.2070    6.4780 S.3   112  MET112     -0.1393
    110  CE        21.1350    2.8490    5.1850 C.3   112  MET112      0.0692
    111  N         23.8270   -3.2380    7.6510 N.3   142  TRP142     -0.1241
    112  CA        23.1700   -2.2690    6.7710 C.3   142  TRP142      0.1605
    113  C         24.1170   -1.5620    5.8140 C.2   142  TRP142      0.2264
    114  O         23.6680   -1.3110    4.6730 O.2   142  TRP142     -0.2867
    115  CB        22.2830   -1.2530    7.4790 C.3   142  TRP142      0.0550
    116  CG        20.9340   -1.7290    7.8780 C.ar  142  TRP142      0.0003
    117  CD1       20.3600   -2.9420    7.6470 C.ar  142  TRP142      0.0946
    118  CD2       19.9460   -0.9700    8.5950 C.ar  142  TRP142      0.0152
    119  NE1       19.0940   -3.0010    8.1660 N.ar  142  TRP142     -0.2442
    120  CE2       18.8190   -1.8040    8.7590 C.ar  142  TRP142      0.0810
    121  CE3       19.9260    0.3230    9.1110 C.ar  142  TRP142      0.0012
    122  CZ2       17.6750   -1.3790    9.4170 C.ar  142  TRP142      0.0191
    123  CZ3       18.7890    0.7460    9.7700 C.ar  142  TRP142      0.0001
    124  CH2       17.6830   -0.0880    9.9220 C.ar  142  TRP142      0.0015
    125  N         23.8520   -2.2140    2.0890 N.3   145  TYR145     -0.1228
    126  CA        22.7030   -1.6530    1.3680 C.3   145  TYR145      0.1721
    127  C         23.0290   -0.4500    0.5010 C.2   145  TYR145      0.2437
    128  O         22.9380   -0.5650   -0.7350 O.2   145  TYR145     -0.2733
    129  CB        21.5360   -1.3740    2.3430 C.3   145  TYR145      0.0547
    130  CG        21.0240   -2.6770    2.9200 C.ar  145  TYR145     -0.0200
    131  CD1       20.6840   -2.8310    4.2620 C.ar  145  TYR145     -0.0009
    132  CD2       20.9060   -3.7860    2.0780 C.ar  145  TYR145     -0.0009
    133  CE1       20.2200   -4.0570    4.7260 C.ar  145  TYR145      0.0417
    134  CE2       20.4510   -5.0110    2.5410 C.ar  145  TYR145      0.0417
    135  CZ        20.1070   -5.1460    3.8760 C.ar  145  TYR145      0.1957
    136  OH        19.6510   -6.3660    4.2900 O.3   145  TYR145     -0.2866
    137  N         23.3720    0.6550    1.1390 N.am  146  PRO146     -0.2729
    138  CA        23.7180    1.8830    0.4190 C.3   146  PRO146      0.1401
    139  C         24.9580    1.6370   -0.4320 C.2   146  PRO146      0.2269
    140  O         25.0430    2.1060   -1.5780 O.2   146  PRO146     -0.2865
    141  CB        23.9240    2.9300    1.4980 C.3   146  PRO146      0.0296
    142  CG        24.1410    2.1870    2.7820 C.3   146  PRO146      0.0237
    143  CD        23.4810    0.8370    2.5890 C.3   146  PRO146      0.0939
    144  N         23.9190   -0.7420   -3.2440 N.3   149  TRP149     -0.1241
    145  CA        22.9630    0.0390   -4.0410 C.3   149  TRP149      0.1605
    146  C         23.7720    0.8660   -5.0430 C.2   149  TRP149      0.2264
    147  O         23.6560    0.6920   -6.2650 O.2   149  TRP149     -0.2867
    148  CB        22.0320    0.8870   -3.1810 C.3   149  TRP149      0.0550
    149  CG        20.6700    0.9750   -3.7870 C.ar  149  TRP149      0.0003
    150  CD1       19.5560    0.2780   -3.4200 C.ar  149  TRP149      0.0946
    151  CD2       20.2900    1.7890   -4.9080 C.ar  149  TRP149      0.0152
    152  NE1       18.4970    0.6290   -4.2190 N.ar  149  TRP149     -0.2442
    153  CE2       18.9210    1.5410   -5.1460 C.ar  149  TRP149      0.0810
    154  CE3       20.9720    2.6880   -5.7220 C.ar  149  TRP149      0.0012
    155  CZ2       18.2250    2.1670   -6.1710 C.ar  149  TRP149      0.0191
    156  CZ3       20.2740    3.3100   -6.7400 C.ar  149  TRP149      0.0001
    157  CH2       18.9220    3.0620   -6.9670 C.ar  149  TRP149      0.0015
    158  N         23.1410   -9.2120   -0.9760 N.3   159  PHE159     -0.1241
    159  CA        21.8890   -8.8810   -0.2740 C.3   159  PHE159      0.1605
    160  C         21.3960  -10.1320    0.4470 C.2   159  PHE159      0.2264
    161  O         21.0680  -10.0980    1.6410 O.2   159  PHE159     -0.2867
    162  CB        20.8960   -8.2790   -1.2540 C.3   159  PHE159      0.0534
    163  CG        20.9450   -6.7960   -1.4520 C.ar  159  PHE159     -0.0203
    164  CD1       19.9070   -6.1630   -2.1380 C.ar  159  PHE159     -0.0042
    165  CD2       21.9760   -6.0070   -0.9470 C.ar  159  PHE159     -0.0042
    166  CE1       19.9010   -4.7910   -2.3440 C.ar  159  PHE159     -0.0003
    167  CE2       21.9900   -4.6220   -1.1290 C.ar  159  PHE159     -0.0003
    168  CZ        20.9420   -4.0110   -1.8380 C.ar  159  PHE159     -0.0000
    169  N         20.6880  -10.3410    4.7480 N.3   163  ASP163     -0.1239
    170  CA        19.4270  -10.5680    5.4700 C.3   163  ASP163      0.1674
    171  C         19.5560  -11.7950    6.3700 C.2   163  ASP163      0.2266
    172  O         19.3180  -11.7080    7.5830 O.2   163  ASP163     -0.2867
    173  CB        18.2280  -10.6570    4.5400 C.3   163  ASP163      0.1410
    174  CG        18.0960   -9.5710    3.4960 C.2   163  ASP163      0.3668
    175  OD1       18.3270   -9.8120    2.2980 O.co2 163  ASP163     -0.2456
    176  OD2       17.7420   -8.4360    3.8810 O.co2 163  ASP163     -0.2456
    177  N         22.0640  -11.1420    8.8760 N.3   166  ALA166     -0.1231
    178  CA        21.3950  -10.1870    9.7490 C.3   166  ALA166      0.1694
    179  C         20.4660  -10.9110   10.7220 C.2   166  ALA166      0.2591
    180  O         20.7940  -10.9600   11.9070 O.2   166  ALA166     -0.2718
    181  CB        20.5980   -9.1470    8.9730 C.3   166  ALA166      0.0304
    182  N         19.3860  -11.4510   10.2160 N.am  167  LYS167     -0.1980
    183  CA        18.3370  -12.1320   10.9310 C.3   167  LYS167      0.1596
    184  C         18.4860  -13.4880   11.5970 C.2   167  LYS167      0.2287
    185  O         18.1390  -13.6310   12.7840 O.2   167  LYS167     -0.2864
    186  CB        17.1860  -12.4430    9.9540 C.3   167  LYS167      0.0298
    187  CG        16.6610  -11.2340    9.2030 C.3   167  LYS167      0.0038
    188  CD        16.1590  -11.6820    7.8250 C.3   167  LYS167      0.0206
    189  CE        15.1120  -10.8060    7.2030 C.3   167  LYS167      0.1093
    190  NZ        15.4560   -9.7060    6.3260 N.3   167  LYS167     -0.1314
@<TRIPOS>BOND
     1    75    74    2
     2   157   156   ar
     3   157   155   ar
     4   156   154   ar
     5   147   146    2
     6    74    73    1
     7   155   153   ar
     8    68    67    2
     9   154   151   ar
    10    12    11    1
    11   153   151   ar
    12   153   152   ar
    13    73    72    1
    14   146   145    1
    15   151   149   ar
    16    67    72   am
    17    67    66    1
    18    10    11   ar
    19    10     8   ar
    20    11     9   ar
    21   152   150   ar
    22   145   144    1
    23   145   148    1
    24   149   150   ar
    25   149   148    1
    26     8     6   ar
    27    66    65    1
    28    66    69    1
    29     9     7   ar
    30    69    70    1
    31    69    71    1
    32     6     7   ar
    33     6     5    1
    34    76    77    1
    35   166   164   ar
    36   166   168   ar
    37    80    77    1
    38    80    81    1
    39   164   163   ar
    40    86    88   ar
    41    86    83   ar
    42   168   167   ar
    43    88    89   ar
    44   140   139    2
    45   163   162    1
    46   163   165   ar
    47    77    78    1
    48     5     2    1
    49    83    81   ar
    50    83    85   ar
    51    81    82   ar
    52   162   159    1
    53     1     2    1
    54   167   165   ar
    55    60    59    2
    56   158   159    1
    57    89    87   ar
    58   128   127    2
    59     2     3    1
    60   139   138    1
    61    78    79    2
    62    82    84   ar
    63    85    87   ar
    64    85    84   ar
    65   159   160    1
    66    26    25   ar
    67    26    24   ar
    68    59    58    1
    69    25    23   ar
    70   138   137    1
    71   138   141    1
    72   160   161    2
    73   127   137   am
    74   127   126    1
    75     3     4    2
    76    24    22   ar
    77    95    94    1
    78    23    20   ar
    79   137   143    1
    80    58    57    1
    81    58    61    1
    82    22    20   ar
    83    22    21   ar
    84   126   125    1
    85   126   129    1
    86   141   142    1
    87    20    18   ar
    88    21    19   ar
    89   132   134   ar
    90   132   130   ar
    91    61    62    1
    92   101   100    1
    93    94    91    1
    94   175   174   ar
    95   129   130    1
    96    18    19   ar
    97    18    17    1
    98   134   135   ar
    99   143   142    1
   100    90    91    1
   101   130   131   ar
   102    17    14    1
   103    52    51    2
   104    62    63    1
   105    91    92    1
   106    13    14    1
   107   174   176   ar
   108   174   173    1
   109   100   102    1
   110   100    97    1
   111    96    92   am
   112    96    97    1
   113   135   136    1
   114   135   133   ar
   115    14    15    1
   116   131   133   ar
   117    92    93    2
   118    51    50    1
   119    97    98    1
   120   173   170    1
   121    63    64    1
   122   114   113    2
   123   169   170    1
   124    15    16    2
   125   110   109    1
   126   170   171    1
   127    50    49    1
   128    50    53    1
   129    98    99    2
   130   113   112    1
   131    55    54   ar
   132   190   189    1
   133    54    56   ar
   134    54    53    1
   135   171   172    2
   136   109   108    1
   137   112   115    1
   138   112   111    1
   139    33    31    1
   140   189   188    1
   141    39    38    1
   142   107   108    1
   143   107   104    1
   144   115   116    1
   145   117   116   ar
   146   117   119   ar
   147   188   187    1
   148    27    28    1
   149   116   118   ar
   150    31    28    1
   151    31    32    1
   152   119   120   ar
   153   103   104    1
   154    38    40    1
   155    38    35    1
   156   118   120   ar
   157   118   121   ar
   158   104   105    1
   159   120   122   ar
   160    28    29    1
   161   177   178    1
   162   181   178    1
   163    34    35    1
   164    34    29   am
   165   121   123   ar
   166   187   186    1
   167   122   124   ar
   168    35    36    1
   169    29    30    2
   170   178   179    1
   171   123   124   ar
   172   105   106    2
   173   186   183    1
   174   182   179   am
   175   182   183    1
   176   179   180    2
   177    36    37    2
   178   183   184    1
   179    48    46    1
   180   184   185    2
   181    47    46    1
   182    46    45    1
   183    45    42    1
   184    41    42    1
   185    42    43    1
   186    43    44    2
