@<TRIPOS>MOLECULE
tmp/1brnC00.pdb
 194 191 0 0 0
SMALL
GASTEIGER

@<TRIPOS>ATOM
      1  N         24.0920    9.0550   15.9760 N.3    25  LYS25      -0.1245
      2  CA        24.9690    9.7740   16.9050 C.3    25  LYS25       0.1561
      3  C         26.0260    8.8330   17.4800 C.2    25  LYS25       0.2260
      4  O         27.1990    9.1960   17.5860 O.2    25  LYS25      -0.2867
      5  CB        24.1740   10.4150   18.0450 C.3    25  LYS25       0.0271
      6  CG        23.6580   11.7930   17.6440 C.3    25  LYS25       0.0035
      7  CD        23.0700   12.4800   18.8710 C.3    25  LYS25       0.0206
      8  CE        22.5850   13.8710   18.4730 C.3    25  LYS25       0.1093
      9  NZ        22.2670   14.6320   19.7310 N.3    25  LYS25      -0.1314
     10  N         33.5650   11.9520   16.6840 N.3    33  TRP33      -0.1241
     11  CA        32.7860   13.1940   16.6760 C.3    33  TRP33       0.1605
     12  C         32.5680   13.7050   18.0970 C.2    33  TRP33       0.2264
     13  O         32.1700   12.9260   18.9600 O.2    33  TRP33      -0.2867
     14  CB        31.4230   13.0220   15.9860 C.3    33  TRP33       0.0550
     15  CG        30.4870   14.1850   16.1630 C.ar   33  TRP33       0.0003
     16  CD1       30.6750   15.4710   15.7260 C.ar   33  TRP33       0.0946
     17  CD2       29.2240   14.1780   16.8330 C.ar   33  TRP33       0.0152
     18  NE1       29.5960   16.2560   16.0840 N.ar   33  TRP33      -0.2442
     19  CE2       28.6910   15.4790   16.7570 C.ar   33  TRP33       0.0810
     20  CE3       28.4900   13.1830   17.4930 C.ar   33  TRP33       0.0012
     21  CZ2       27.4600   15.8170   17.3220 C.ar   33  TRP33       0.0191
     22  CZ3       27.2660   13.5180   18.0490 C.ar   33  TRP33       0.0001
     23  CH2       26.7590   14.8290   17.9630 C.ar   33  TRP33       0.0015
     24  N         30.5320   16.8290   19.8230 N.3    35  ALA35      -0.1231
     25  CA        29.5960   17.9240   19.6000 C.3    35  ALA35       0.1694
     26  C         30.2200   19.3010   19.8280 C.2    35  ALA35       0.2592
     27  O         30.2170   20.1330   18.9100 O.2    35  ALA35      -0.2718
     28  CB        28.3870   17.7230   20.4920 C.3    35  ALA35       0.0304
     29  N         30.7600   19.5200   21.0170 N.am   36  SER36      -0.1952
     30  CA        31.3500   20.8270   21.3320 C.3    36  SER36       0.1924
     31  C         32.5030   21.2080   20.4140 C.2    36  SER36       0.2314
     32  O         32.9060   22.3800   20.4520 O.2    36  SER36      -0.2863
     33  CB        31.8020   20.9050   22.7910 C.3    36  SER36       0.2116
     34  OG        32.7720   19.9400   23.0840 O.3    36  SER36      -0.2180
     35  N         32.4500   20.5430   16.9640 N.3    38  GLY38      -0.1225
     36  CA        31.9090   20.7250   15.6220 C.3    38  GLY38       0.1811
     37  C         32.7990   20.1060   14.5560 C.2    38  GLY38       0.2280
     38  O         32.9210   20.6440   13.4570 O.2    38  GLY38      -0.2866
     39  N         18.3050    8.7470   14.6780 N.3    52  ASP52      -0.1225
     40  CA        18.0290    8.5910   16.1080 C.3    52  ASP52       0.1805
     41  C         16.5780    8.8640   16.4770 C.2    52  ASP52       0.2598
     42  O         15.8620    9.5760   15.7700 O.2    52  ASP52      -0.2718
     43  CB        18.9710    9.4750   16.9460 C.3    52  ASP52       0.1424
     44  CG        20.4010    8.9920   16.8320 C.2    52  ASP52       0.3668
     45  OD1       20.6730    7.8860   17.3280 O.co2  52  ASP52      -0.2456
     46  OD2       21.2360    9.7220   16.2810 O.co2  52  ASP52      -0.2456
     47  N         16.1500    8.2920   17.5920 N.am   53  ILE53      -0.1966
     48  CA        14.7840    8.4580   18.0770 C.3    53  ILE53       0.1727
     49  C         14.4640    9.8870   18.5240 C.2    53  ILE53       0.2616
     50  O         15.2630   10.5820   19.1680 O.2    53  ILE53      -0.2715
     51  CB        14.5160    7.5190   19.2720 C.3    53  ILE53       0.0290
     52  CG1       14.6070    6.0550   18.8090 C.3    53  ILE53       0.0022
     53  CG2       13.1620    7.8320   19.8850 C.3    53  ILE53       0.0023
     54  CD1       13.3160    5.5880   18.1450 C.3    53  ILE53       0.0001
     55  N         13.2730   10.2930   18.1170 N.am   54  PHE54      -0.1960
     56  CA        12.7070   11.6110   18.4720 C.3    54  PHE54       0.1771
     57  C         11.5600   11.2420   19.4270 C.2    54  PHE54       0.2620
     58  O         10.6440   10.5430   18.9610 O.2    54  PHE54      -0.2715
     59  CB        12.2350   12.3810   17.2660 C.3    54  PHE54       0.0574
     60  CG        11.5870   13.6880   17.6350 C.ar   54  PHE54      -0.0200
     61  CD1       12.3880   14.7600   17.9970 C.ar   54  PHE54      -0.0042
     62  CD2       10.2070   13.8190   17.6080 C.ar   54  PHE54      -0.0042
     63  CE1       11.7940   15.9650   18.3400 C.ar   54  PHE54      -0.0003
     64  CE2        9.6190   15.0270   17.9550 C.ar   54  PHE54      -0.0003
     65  CZ        10.4210   16.0990   18.3130 C.ar   54  PHE54      -0.0000
     66  N         11.6200   11.6430   20.6830 N.am   55  SER55      -0.1936
     67  CA        10.5750   11.2500   21.6360 C.3    55  SER55       0.2055
     68  C          9.2540   11.9840   21.4940 C.2    55  SER55       0.2643
     69  O          8.2620   11.4750   22.0810 O.2    55  SER55      -0.2714
     70  CB        11.1170   11.3240   23.0540 C.3    55  SER55       0.2130
     71  OG        12.1950   10.4380   23.2810 O.3    55  SER55      -0.2179
     72  N          9.1590   13.0710   20.7700 N.am   56  ASN56      -0.1957
     73  CA         7.8920   13.7890   20.6060 C.3    56  ASN56       0.1819
     74  C          7.2540   14.1370   21.9450 C.2    56  ASN56       0.2621
     75  O          6.0260   14.1000   22.0890 O.2    56  ASN56      -0.2715
     76  CB         6.9530   12.9120   19.7750 C.3    56  ASN56       0.1195
     77  CG         5.7910   13.6810   19.1890 C.2    56  ASN56       0.2630
     78  OD1        5.8900   14.8920   18.9450 O.2    56  ASN56      -0.2716
     79  ND2        4.7010   12.9290   18.9880 N.am   56  ASN56      -0.0877
     80  N          8.0670   14.4680   22.9340 N.am   57  ARG57      -0.1963
     81  CA         7.5790   14.8260   24.2740 C.3    57  ARG57       0.1729
     82  C          6.5950   15.9950   24.2850 C.2    57  ARG57       0.2616
     83  O          5.6700   16.0010   25.1190 O.2    57  ARG57      -0.2715
     84  CB         8.7690   15.1110   25.1900 C.3    57  ARG57       0.0348
     85  CG         9.6680   13.9330   25.4740 C.3    57  ARG57       0.0492
     86  CD        10.8620   14.3370   26.3420 C.3    57  ARG57       0.2205
     87  NE        11.6630   15.3880   25.7140 N.pl3  57  ARG57      -0.0865
     88  CZ        12.8620   15.1280   25.1810 C.cat  57  ARG57       0.5346
     89  NH1       13.3500   13.8940   25.2220 N.pl3  57  ARG57       0.1354
     90  NH2       13.5830   16.0690   24.5920 N.pl3  57  ARG57       0.1354
     91  N          6.7080   16.9570   23.3860 N.am   58  GLU58      -0.1977
     92  CA         5.8340   18.1250   23.2930 C.3    58  GLU58       0.1602
     93  C          4.4950   17.7870   22.6460 C.2    58  GLU58       0.2287
     94  O          3.5590   18.5740   22.7390 O.2    58  GLU58      -0.2864
     95  CB         6.4100   19.3040   22.5060 C.3    58  GLU58       0.0415
     96  CG         7.8430   19.5960   22.9040 C.3    58  GLU58       0.1163
     97  CD         8.7770   18.5030   22.4270 C.2    58  GLU58       0.3649
     98  OE1        8.6700   17.3150   22.8350 O.co2  58  GLU58      -0.2457
     99  OE2        9.6580   18.8120   21.5890 O.co2  58  GLU58      -0.2457
    100  N         14.6170   11.1630   13.6400 N.3    71  GLU71      -0.1245
    101  CA        14.9270   12.4490   13.0050 C.3    71  GLU71       0.1567
    102  C         16.2800   12.3410   12.3560 C.2    71  GLU71       0.2260
    103  O         17.0780   11.4900   12.7670 O.2    71  GLU71      -0.2867
    104  CB        14.9060   13.5810   14.0430 C.3    71  GLU71       0.0388
    105  CG        15.6580   13.2590   15.3260 C.3    71  GLU71       0.1160
    106  CD        17.1610   13.3970   15.2430 C.2    71  GLU71       0.3649
    107  OE1       17.6690   14.1090   14.3350 O.co2  71  GLU71      -0.2457
    108  OE2       17.8840   12.8030   16.0950 O.co2  71  GLU71      -0.2457
    109  N         29.4370   22.9990   13.0110 N.3    80  PHE80      -0.1227
    110  CA        28.4160   22.7120   14.0310 C.3    80  PHE80       0.1736
    111  C         27.1010   22.4270   13.3180 C.2    80  PHE80       0.2595
    112  O         26.8730   22.9300   12.2170 O.2    80  PHE80      -0.2718
    113  CB        28.3100   23.8740   15.0480 C.3    80  PHE80       0.0547
    114  CG        29.5260   23.9230   15.9430 C.ar   80  PHE80      -0.0202
    115  CD1       30.6840   24.5740   15.5330 C.ar   80  PHE80      -0.0042
    116  CD2       29.5110   23.2890   17.1740 C.ar   80  PHE80      -0.0042
    117  CE1       31.8100   24.5900   16.3300 C.ar   80  PHE80      -0.0003
    118  CE2       30.6310   23.3170   17.9880 C.ar   80  PHE80      -0.0003
    119  CZ        31.7850   23.9690   17.5650 C.ar   80  PHE80      -0.0000
    120  N         26.2450   21.6380   13.9440 N.am   81  ARG81      -0.1966
    121  CA        24.9740   21.2800   13.3110 C.3    81  ARG81       0.1729
    122  C         23.9630   22.4070   13.2550 C.2    81  ARG81       0.2616
    123  O         24.0210   23.3220   14.0830 O.2    81  ARG81      -0.2715
    124  CB        24.4340   20.0390   14.0280 C.3    81  ARG81       0.0348
    125  CG        25.3690   18.8440   13.6930 C.3    81  ARG81       0.0492
    126  CD        25.0530   17.7490   14.7020 C.3    81  ARG81       0.2205
    127  NE        23.7040   17.1970   14.5150 N.pl3  81  ARG81      -0.0865
    128  CZ        22.8980   16.8260   15.5020 C.cat  81  ARG81       0.5346
    129  NH1       23.2550   16.9330   16.7730 N.pl3  81  ARG81       0.1354
    130  NH2       21.7100   16.3130   15.2040 N.pl3  81  ARG81       0.1354
    131  N         23.0710   22.3170   12.2650 N.am   82  ASN82      -0.1958
    132  CA        22.0620   23.3780   12.0790 C.3    82  ASN82       0.1819
    133  C         20.7320   23.0870   12.7510 C.2    82  ASN82       0.2622
    134  O         20.6460   22.2710   13.6690 O.2    82  ASN82      -0.2715
    135  CB        21.9020   23.6630   10.5920 C.3    82  ASN82       0.1195
    136  CG        21.4200   22.4390    9.8210 C.2    82  ASN82       0.2630
    137  OD1       20.8200   21.5610   10.4280 O.2    82  ASN82      -0.2716
    138  ND2       21.6830   22.4120    8.5300 N.am   82  ASN82      -0.0877
    139  N         19.7210   23.8110   12.2700 N.am   83  SER83      -0.1950
    140  CA        18.3820   23.6520   12.8410 C.3    83  SER83       0.1924
    141  C         17.3780   22.8460   12.0340 C.2    83  SER83       0.2314
    142  O         16.2180   22.7440   12.4300 O.2    83  SER83      -0.2863
    143  CB        17.7870   25.0820   13.0390 C.3    83  SER83       0.2116
    144  OG        18.7100   25.9260   13.7150 O.3    83  SER83      -0.2180
    145  N         15.8460   19.5730   10.2570 N.3    85  ARG85      -0.1245
    146  CA        15.6590   18.1500   10.4970 C.3    85  ARG85       0.1563
    147  C         14.4110   17.6600    9.7780 C.2    85  ARG85       0.2260
    148  O         13.4080   18.3530    9.6100 O.2    85  ARG85      -0.2867
    149  CB        15.4780   17.8080   11.9770 C.3    85  ARG85       0.0307
    150  CG        16.4930   18.3600   12.9590 C.3    85  ARG85       0.0489
    151  CD        17.8070   17.5870   12.9250 C.3    85  ARG85       0.2205
    152  NE        18.7350   18.0670   13.9490 N.pl3  85  ARG85      -0.0865
    153  CZ        19.6040   19.0520   13.7490 C.cat  85  ARG85       0.5346
    154  NH1       19.6830   19.6670   12.5830 N.pl3  85  ARG85       0.1354
    155  NH2       20.3900   19.4220   14.7430 N.pl3  85  ARG85       0.1354
    156  N         13.4070   24.9370   12.6170 N.3    99  ASP99      -0.1225
    157  CA        13.6800   25.6640   13.8580 C.3    99  ASP99       0.1805
    158  C         13.9440   24.7290   15.0220 C.2    99  ASP99       0.2598
    159  O         13.5300   24.9450   16.1730 O.2    99  ASP99      -0.2718
    160  CB        12.5460   26.6350   14.1730 C.3    99  ASP99       0.1424
    161  CG        11.1810   25.9910   14.2940 C.2    99  ASP99       0.3668
    162  OD1       11.0320   24.7450   14.3850 O.co2  99  ASP99      -0.2456
    163  OD2       10.2080   26.7970   14.2800 O.co2  99  ASP99      -0.2456
    164  N         14.6590   23.6460   14.7310 N.am  100  HIS100     -0.1961
    165  CA        15.0240   22.6940   15.7660 C.3   100  HIS100      0.1787
    166  C         13.9050   22.1380   16.6240 C.2   100  HIS100      0.2620
    167  O         13.9500   22.1640   17.8530 O.2   100  HIS100     -0.2715
    168  CB        16.1360   23.3530   16.6090 C.3   100  HIS100      0.0785
    169  CG        16.8350   22.3770   17.5030 C.ar  100  HIS100      0.0821
    170  ND1       16.5200   22.2370   18.8430 N.ar  100  HIS100     -0.2267
    171  CD2       17.8190   21.4810   17.2210 C.ar  100  HIS100      0.1154
    172  CE1       17.2940   21.2950   19.3650 C.ar  100  HIS100      0.1986
    173  NE2       18.0740   20.8320   18.4040 N.ar  100  HIS100     -0.2212
    174  N         12.8990   21.5620   15.9500 N.am  101  TYR101     -0.1960
    175  CA        11.7390   20.9050   16.5320 C.3   101  TYR101      0.1771
    176  C         10.7430   21.7980   17.2680 C.2   101  TYR101      0.2619
    177  O          9.9960   21.3130   18.1330 O.2   101  TYR101     -0.2715
    178  CB        12.1990   19.8250   17.5340 C.3   101  TYR101      0.0574
    179  CG        13.3580   18.9680   17.0640 C.ar  101  TYR101     -0.0198
    180  CD1       13.1820   17.9590   16.1120 C.ar  101  TYR101     -0.0009
    181  CD2       14.6220   19.1370   17.6300 C.ar  101  TYR101     -0.0009
    182  CE1       14.2540   17.1700   15.7280 C.ar  101  TYR101      0.0417
    183  CE2       15.6990   18.3590   17.2360 C.ar  101  TYR101      0.0417
    184  CZ        15.4950   17.3790   16.2910 C.ar  101  TYR101      0.1957
    185  OH        16.5600   16.5970   15.9100 O.3   101  TYR101     -0.2866
    186  N         10.7370   23.0880   16.9530 N.am  102  GLN102     -0.1977
    187  CA         9.7660   23.9670   17.6390 C.3   102  GLN102      0.1601
    188  C          8.4460   23.9470   16.8760 C.2   102  GLN102      0.2287
    189  O          7.3780   23.8960   17.4960 O.2   102  GLN102     -0.2864
    190  CB        10.3350   25.3670   17.8220 C.3   102  GLN102      0.0394
    191  CG        11.5070   25.3930   18.7920 C.3   102  GLN102      0.0908
    192  CD        11.1720   24.9040   20.1810 C.2   102  GLN102      0.2608
    193  OE1       12.0030   24.3210   20.8750 O.2   102  GLN102     -0.2717
    194  NE2        9.9400   25.1100   20.6250 N.am  102  GLN102     -0.0878
@<TRIPOS>BOND
     1   138   136   am
     2   148   147    2
     3   147   146    1
     4   136   137    2
     5   136   135    1
     6   145   146    1
     7   146   149    1
     8   135   132    1
     9   149   150    1
    10   141   142    2
    11   141   140    1
    12   132   131    1
    13   132   133    1
    14   112   111    2
    15   131   122   am
    16   139   133   am
    17   139   140    1
    18   102   103    2
    19   102   101    1
    20   154   153    1
    21   156   157    1
    22   133   134    2
    23   140   143    1
    24   151   150    1
    25   151   152    1
    26   101   100    1
    27   101   104    1
    28   109   110    1
    29   143   144    1
    30   122   121    1
    31   122   123    2
    32   121   120    1
    33   121   124    1
    34   111   120   am
    35   111   110    1
    36    38    37    2
    37   125   124    1
    38   125   126    1
    39   153   152    2
    40   153   155    1
    41   157   160    1
    42   157   158    1
    43   110   113    1
    44   104   105    1
    45   160   161    1
    46   163   161   ar
    47   161   162   ar
    48   107   106   ar
    49   127   126    1
    50   127   128    2
    51    37    36    1
    52    39    40    1
    53   164   158   am
    54   164   165    1
    55   158   159    2
    56   113   114    1
    57   130   128    1
    58   106   105    1
    59   106   108   ar
    60   128   129    1
    61   115   114   ar
    62   115   117   ar
    63    36    35    1
    64    16    18   ar
    65    16    15   ar
    66   182   180   ar
    67   182   184   ar
    68   165   168    1
    69   165   166    1
    70    42    41    2
    71   185   184    1
    72   114   116   ar
    73   174   175    1
    74   174   166   am
    75     1     2    1
    76    14    15    1
    77    14    11    1
    78    18    19   ar
    79    40    41    1
    80    40    43    1
    81   180   179   ar
    82    15    17   ar
    83    46    44   ar
    84   184   183   ar
    85   117   119   ar
    86    41    47   am
    87   175   176    1
    88   175   178    1
    89   168   169    1
    90   166   167    2
    91    11    10    1
    92    11    12    1
    93    19    17   ar
    94    19    21   ar
    95    44    43    1
    96    44    45   ar
    97    17    20   ar
    98   188   189    2
    99   188   187    1
   100     2     3    1
   101     2     5    1
   102   186   176   am
   103   186   187    1
   104   179   178    1
   105   179   181   ar
   106   116   118   ar
   107   171   169   ar
   108   171   173   ar
   109   183   181   ar
   110    59    60    1
   111    59    56    1
   112   176   177    2
   113    21    23   ar
   114     3     4    2
   115    20    22   ar
   116   169   170   ar
   117   119   118   ar
   118    47    48    1
   119    62    60   ar
   120    62    64   ar
   121    60    61   ar
   122   187   190    1
   123     6     5    1
   124     6     7    1
   125   190   191    1
   126    64    65   ar
   127    23    22   ar
   128    61    63   ar
   129    48    49    1
   130    48    51    1
   131    12    13    2
   132    55    56    1
   133    55    49   am
   134    54    52    1
   135    65    63   ar
   136   173   172   ar
   137    56    57    1
   138     8     7    1
   139     8     9    1
   140    49    50    2
   141   191   192    1
   142    52    51    1
   143   170   172   ar
   144    27    26    2
   145    78    77    2
   146    58    57    2
   147    79    77   am
   148    77    76    1
   149    51    53    1
   150    57    66   am
   151    25    24    1
   152    25    26    1
   153    25    28    1
   154    76    73    1
   155    26    29   am
   156   192   194   am
   157   192   193    2
   158    31    32    2
   159    31    30    1
   160    73    72    1
   161    73    74    1
   162    66    67    1
   163    72    68   am
   164    29    30    1
   165    30    33    1
   166    68    67    1
   167    68    69    2
   168    99    97   ar
   169    67    70    1
   170    74    75    2
   171    74    80   am
   172    97    98   ar
   173    97    96    1
   174    95    96    1
   175    95    92    1
   176    93    94    2
   177    93    92    1
   178    33    34    1
   179    80    81    1
   180    70    71    1
   181    92    91    1
   182    91    82   am
   183    81    82    1
   184    81    84    1
   185    82    83    2
   186    90    88    1
   187    88    89    1
   188    88    87    2
   189    84    85    1
   190    85    86    1
   191    87    86    1
