@<TRIPOS>MOLECULE
tmp/1brrC04.pdb
 114 109 0 0 0
SMALL
GASTEIGER

@<TRIPOS>ATOM
      1  N         27.5590  -23.9400   13.9080 N.3    23  THR23      -0.1203
      2  CA        27.4420  -23.0380   15.0470 C.3    23  THR23       0.1994
      3  C         27.2780  -23.8180   16.3540 C.2    23  THR23       0.2617
      4  O         27.9520  -23.5330   17.3540 O.2    23  THR23      -0.2717
      5  CB        26.2520  -22.0910   14.8880 C.3    23  THR23       0.1784
      6  OG1       26.4280  -21.2960   13.7130 O.3    23  THR23      -0.2211
      7  CG2       26.1320  -21.1840   16.1050 C.3    23  THR23       0.0376
      8  N         26.3630  -24.7900   16.3490 N.am   24  LEU24      -0.1979
      9  CA        26.1350  -25.6150   17.5280 C.3    24  LEU24       0.1596
     10  C         27.4440  -26.3170   17.8650 C.2    24  LEU24       0.2287
     11  O         27.8110  -26.4550   19.0280 O.2    24  LEU24      -0.2864
     12  CB        25.0200  -26.6310   17.2690 C.3    24  LEU24       0.0297
     13  CG        23.5760  -26.2200   17.6130 C.3    24  LEU24       0.0022
     14  CD1       23.4730  -25.8880   19.1060 C.3    24  LEU24       0.0001
     15  CD2       23.1080  -25.0390   16.7740 C.3    24  LEU24       0.0001
     16  N         30.5350  -25.1730   17.2320 N.3    26  PHE26      -0.1227
     17  CA        31.4550  -24.1790   17.7920 C.3    26  PHE26       0.1736
     18  C         30.9970  -23.7340   19.1640 C.2    26  PHE26       0.2595
     19  O         31.7880  -23.1890   19.9250 O.2    26  PHE26      -0.2718
     20  CB        31.6020  -22.9560   16.8630 C.3    26  PHE26       0.0547
     21  CG        32.3560  -23.2340   15.5750 C.ar   26  PHE26      -0.0202
     22  CD1       33.0890  -24.4010   15.4080 C.ar   26  PHE26      -0.0042
     23  CD2       32.3310  -22.3100   14.5290 C.ar   26  PHE26      -0.0042
     24  CE1       33.7850  -24.6410   14.2210 C.ar   26  PHE26      -0.0003
     25  CE2       33.0230  -22.5360   13.3310 C.ar   26  PHE26      -0.0003
     26  CZ        33.7510  -23.7020   13.1770 C.ar   26  PHE26      -0.0000
     27  N         29.7170  -23.9350   19.4650 N.am   27  LEU27      -0.1980
     28  CA        29.1520  -23.5740   20.7740 C.3    27  LEU27       0.1596
     29  C         29.4450  -24.6800   21.7870 C.2    27  LEU27       0.2287
     30  O         29.9540  -24.4260   22.8810 O.2    27  LEU27      -0.2864
     31  CB        27.6330  -23.4040   20.6800 C.3    27  LEU27       0.0297
     32  CG        27.0230  -22.0170   20.5360 C.3    27  LEU27       0.0022
     33  CD1       25.5490  -22.1740   20.2420 C.3    27  LEU27       0.0001
     34  CD2       27.2270  -21.2140   21.8100 C.3    27  LEU27       0.0001
     35  N         33.1730  -24.5980   22.7300 N.3    30  GLY30      -0.1210
     36  CA        33.7800  -23.5180   23.4760 C.3    30  GLY30       0.1956
     37  C         33.3450  -23.6240   24.9290 C.2    30  GLY30       0.2612
     38  O         33.4970  -22.6810   25.7060 O.2    30  GLY30      -0.2717
     39  N         32.8120  -24.7880   25.2960 N.am   31  MET31      -0.1965
     40  CA        32.3280  -25.0390   26.6460 C.3    31  MET31       0.1736
     41  C         33.3050  -24.5760   27.7250 C.2    31  MET31       0.2617
     42  O         33.0200  -23.6140   28.4400 O.2    31  MET31      -0.2715
     43  CB        31.9930  -26.5180   26.8220 C.3    31  MET31       0.0427
     44  CG        30.9820  -27.0500   25.8220 C.3    31  MET31       0.0599
     45  SD        29.3520  -26.3430   26.0270 S.3    31  MET31      -0.1393
     46  CE        28.4070  -27.8010   26.3880 C.3    31  MET31       0.0692
     47  N         34.4510  -25.2450   27.8350 N.am   32  GLY32      -0.1940
     48  CA        35.4450  -24.8530   28.8260 C.3    32  GLY32       0.2014
     49  C         36.0350  -23.4820   28.5250 C.2    32  GLY32       0.2638
     50  O         35.4300  -22.4620   28.8390 O.2    32  GLY32      -0.2714
     51  N         37.2070  -23.4660   27.8960 N.am   33  VAL33      -0.1977
     52  CA        37.9120  -22.2400   27.5090 C.3    33  VAL33       0.1596
     53  C         37.9210  -21.1660   28.5980 C.2    33  VAL33       0.2287
     54  O         36.9110  -20.5090   28.8560 O.2    33  VAL33      -0.2864
     55  CB        37.3560  -21.6550   26.1820 C.3    33  VAL33       0.0276
     56  CG1       38.3020  -20.5910   25.6450 C.3    33  VAL33       0.0022
     57  CG2       37.1710  -22.7570   25.1480 C.3    33  VAL33       0.0022
     58  N         39.2700  -16.6140   24.1680 N.3    39  LYS39      -0.1245
     59  CA        37.8520  -16.3670   24.3870 C.3    39  LYS39       0.1561
     60  C         37.3040  -15.5240   23.2350 C.2    39  LYS39       0.2260
     61  O         36.2860  -15.8720   22.6250 O.2    39  LYS39      -0.2867
     62  CB        37.6470  -15.6440   25.7220 C.3    39  LYS39       0.0271
     63  CG        36.6600  -16.3210   26.6580 C.3    39  LYS39       0.0035
     64  CD        36.5600  -15.5720   27.9780 C.3    39  LYS39       0.0206
     65  CE        35.4880  -16.1680   28.8830 C.3    39  LYS39       0.1093
     66  NZ        35.2850  -15.3680   30.1270 N.3    39  LYS39      -0.1314
     67  N         36.7690  -17.4770   20.0060 N.3    42  TYR42      -0.1227
     68  CA        35.6150  -18.3580   19.9960 C.3    42  TYR42       0.1736
     69  C         34.3700  -17.4970   19.7970 C.2    42  TYR42       0.2595
     70  O         33.5610  -17.7570   18.9080 O.2    42  TYR42      -0.2718
     71  CB        35.5360  -19.1720   21.2980 C.3    42  TYR42       0.0548
     72  CG        36.2080  -20.5360   21.2160 C.ar   42  TYR42      -0.0200
     73  CD1       37.5870  -20.6770   21.3980 C.ar   42  TYR42      -0.0009
     74  CD2       35.4690  -21.6810   20.9320 C.ar   42  TYR42      -0.0009
     75  CE1       38.2070  -21.9200   21.2970 C.ar   42  TYR42       0.0417
     76  CE2       36.0840  -22.9290   20.8280 C.ar   42  TYR42       0.0417
     77  CZ        37.4510  -23.0360   21.0080 C.ar   42  TYR42       0.1957
     78  OH        38.0680  -24.2570   20.8700 O.3    42  TYR42      -0.2866
     79  N         34.2720  -16.4160   20.5650 N.am   43  ALA43      -0.1980
     80  CA        33.1300  -15.4960   20.4800 C.3    43  ALA43       0.1597
     81  C         32.9140  -14.8860   19.0860 C.2    43  ALA43       0.2287
     82  O         31.7800  -14.6540   18.6730 O.2    43  ALA43      -0.2864
     83  CB        33.2690  -14.3870   21.5230 C.3    43  ALA43       0.0319
     84  N         32.1110  -17.8840   16.4020 N.3    46  THR46      -0.1203
     85  CA        30.8320  -18.5550   16.6200 C.3    46  THR46       0.1994
     86  C         29.7040  -17.7450   15.9880 C.2    46  THR46       0.2617
     87  O         28.8350  -18.2950   15.3090 O.2    46  THR46      -0.2717
     88  CB        30.5330  -18.7240   18.1190 C.3    46  THR46       0.1784
     89  OG1       31.5730  -19.4970   18.7250 O.3    46  THR46      -0.2211
     90  CG2       29.2000  -19.4370   18.3180 C.3    46  THR46       0.0376
     91  N         29.7390  -16.4340   16.2060 N.am   47  LEU47      -0.1979
     92  CA        28.7270  -15.5320   15.6780 C.3    47  LEU47       0.1596
     93  C         28.6760  -15.4790   14.1660 C.2    47  LEU47       0.2287
     94  O         27.6130  -15.2480   13.6060 O.2    47  LEU47      -0.2864
     95  CB        28.9220  -14.1130   16.2280 C.3    47  LEU47       0.0297
     96  CG        28.5370  -13.8550   17.6890 C.3    47  LEU47       0.0022
     97  CD1       29.1130  -12.5180   18.1480 C.3    47  LEU47       0.0001
     98  CD2       27.0230  -13.8790   17.8280 C.3    47  LEU47       0.0001
     99  N         26.4400  -18.1810   13.1370 N.3    50  ALA50      -0.1245
    100  CA        25.1360  -17.9180   13.7520 C.3    50  ALA50       0.1562
    101  C         24.3690  -16.8500   12.9670 C.2    50  ALA50       0.2260
    102  O         23.1860  -17.0090   12.7010 O.2    50  ALA50      -0.2867
    103  CB        25.2950  -17.5010   15.2120 C.3    50  ALA50       0.0290
    104  N         23.3660  -18.2830    9.7100 N.3    53  PHE53      -0.1241
    105  CA        22.2400  -19.2110    9.8230 C.3    53  PHE53       0.1605
    106  C         20.9360  -18.4240    9.6750 C.2    53  PHE53       0.2264
    107  O         20.0520  -18.8020    8.9010 O.2    53  PHE53      -0.2867
    108  CB        22.2820  -19.9260   11.1730 C.3    53  PHE53       0.0534
    109  CG        20.9910  -20.6000   11.5580 C.ar   53  PHE53      -0.0203
    110  CD1       20.6710  -21.8590   11.0620 C.ar   53  PHE53      -0.0042
    111  CD2       20.1200  -19.9940   12.4570 C.ar   53  PHE53      -0.0042
    112  CE1       19.5050  -22.5080   11.4600 C.ar   53  PHE53      -0.0003
    113  CE2       18.9490  -20.6340   12.8610 C.ar   53  PHE53      -0.0003
    114  CZ        18.6420  -21.8930   12.3630 C.ar   53  PHE53      -0.0000
@<TRIPOS>BOND
     1   107   106    2
     2   106   105    1
     3   104   105    1
     4   105   108    1
     5   110   112   ar
     6   110   109   ar
     7   108   109    1
     8   112   114   ar
     9   109   111   ar
    10   114   113   ar
    11   111   113   ar
    12   102   101    2
    13   101   100    1
    14    99   100    1
    15    26    25   ar
    16    26    24   ar
    17    25    23   ar
    18    94    93    2
    19     6     5    1
    20   100   103    1
    21     1     2    1
    22    93    92    1
    23    24    22   ar
    24    23    21   ar
    25     5     2    1
    26     5     7    1
    27     2     3    1
    28    87    86    2
    29    22    21   ar
    30    21    20    1
    31    92    91    1
    32    92    95    1
    33    86    91   am
    34    86    85    1
    35    95    96    1
    36     8     3   am
    37     8     9    1
    38     3     4    2
    39    84    85    1
    40    85    88    1
    41    15    13    1
    42    20    17    1
    43    16    17    1
    44    12     9    1
    45    12    13    1
    46     9    10    1
    47    13    14    1
    48    96    98    1
    49    96    97    1
    50    17    18    1
    51    10    11    2
    52    88    90    1
    53    88    89    1
    54    82    81    2
    55    70    69    2
    56    81    80    1
    57    18    27   am
    58    18    19    2
    59    27    28    1
    60    69    68    1
    61    69    79   am
    62    68    67    1
    63    68    71    1
    64    33    32    1
    65    80    79    1
    66    80    83    1
    67    32    31    1
    68    32    34    1
    69    31    28    1
    70    28    29    1
    71    76    74   ar
    72    76    77   ar
    73    78    77    1
    74    74    72   ar
    75    77    75   ar
    76    72    71    1
    77    72    73   ar
    78    75    73   ar
    79    29    30    2
    80    61    60    2
    81    35    36    1
    82    60    59    1
    83    36    37    1
    84    58    59    1
    85    59    62    1
    86    37    39   am
    87    37    38    2
    88    57    55    1
    89    39    40    1
    90    56    55    1
    91    62    63    1
    92    44    45    1
    93    44    43    1
    94    45    46    1
    95    55    52    1
    96    40    43    1
    97    40    41    1
    98    63    64    1
    99    52    51    1
   100    52    53    1
   101    41    47   am
   102    41    42    2
   103    47    48    1
   104    51    49   am
   105    64    65    1
   106    49    48    1
   107    49    50    2
   108    53    54    2
   109    65    66    1
