@<TRIPOS>MOLECULE
tmp/1brrC03.pdb
 63 57 0 0 0
SMALL
GASTEIGER

@<TRIPOS>ATOM
      1  N         44.8770    1.1460   14.0500 N.3   105  GLY105     -0.1210
      2  CA        44.7730    1.9420   12.8460 C.3   105  GLY105      0.1956
      3  C         44.3370    1.0910   11.6750 C.2   105  GLY105      0.2612
      4  O         43.3690    1.4350   11.0040 O.2   105  GLY105     -0.2717
      5  N         45.0160   -0.0370   11.4600 N.am  106  THR106     -0.1952
      6  CA        44.6910   -0.9250   10.3470 C.3   106  THR106      0.1897
      7  C         43.3960   -1.7110   10.5450 C.2   106  THR106      0.2313
      8  O         42.7640   -2.1050    9.5660 O.2   106  THR106     -0.2863
      9  CB        45.8260   -1.9080   10.0270 C.3   106  THR106      0.1794
     10  OG1       45.7700   -3.0130   10.9360 O.3   106  THR106     -0.2208
     11  CG2       47.1790   -1.2160   10.1400 C.3   106  THR106      0.0378
     12  N         40.8630    0.7110    9.4250 N.3   109  ALA109     -0.1245
     13  CA        41.0540    0.8840    7.9870 C.3   109  ALA109      0.1562
     14  C         40.6360   -0.3620    7.2200 C.2   109  ALA109      0.2260
     15  O         40.5080   -0.3470    5.9840 O.2   109  ALA109     -0.2867
     16  CB        42.5220    1.1930    7.6970 C.3   109  ALA109      0.0290
     17  N         36.1980   -0.6190    8.0770 N.3   112  GLY112     -0.1210
     18  CA        35.5920    0.4040    7.2460 C.3   112  GLY112      0.1956
     19  C         35.6270    0.0890    5.7610 C.2   112  GLY112      0.2611
     20  O         34.6300    0.2720    5.0780 O.2   112  GLY112     -0.2717
     21  N         36.7650   -0.3760    5.2520 N.am  113  ALA113     -0.1979
     22  CA        36.8760   -0.7200    3.8260 C.3   113  ALA113      0.1597
     23  C         35.9180   -1.8690    3.4890 C.2   113  ALA113      0.2287
     24  O         35.3690   -1.9500    2.3790 O.2   113  ALA113     -0.2864
     25  CB        38.3170   -1.1130    3.4810 C.3   113  ALA113      0.0319
     26  N         32.4370   -0.5140    3.0920 N.3   116  ILE116     -0.1245
     27  CA        32.2230    0.0210    1.7650 C.3   116  ILE116      0.1561
     28  C         32.0590   -1.1160    0.7530 C.2   116  ILE116      0.2260
     29  O         31.2270   -1.0200   -0.1570 O.2   116  ILE116     -0.2867
     30  CB        33.3710    0.9570    1.3440 C.3   116  ILE116      0.0252
     31  CG1       33.5280    2.0820    2.3660 C.3   116  ILE116      0.0019
     32  CG2       33.0840    1.5560   -0.0300 C.3   116  ILE116      0.0019
     33  CD1       34.6700    3.0020    2.0760 C.3   116  ILE116      0.0001
     34  N         33.8740   -0.6080   -8.0610 N.3   139  ILE139     -0.1245
     35  CA        34.2080    0.0090   -6.7750 C.3   139  ILE139      0.1561
     36  C         34.3010   -0.9890   -5.6090 C.2   139  ILE139      0.2260
     37  O         35.2560   -0.9460   -4.8420 O.2   139  ILE139     -0.2867
     38  CB        33.1980    1.1360   -6.4090 C.3   139  ILE139      0.0252
     39  CG1       33.2580    2.2410   -7.4760 C.3   139  ILE139      0.0019
     40  CG2       33.4510    1.6540   -4.9660 C.3   139  ILE139      0.0019
     41  CD1       32.2400    3.3170   -7.2980 C.3   139  ILE139      0.0001
     42  N         37.4320   -2.9830   -5.9130 N.3   142  ALA142     -0.1231
     43  CA        38.6120   -2.2000   -5.5580 C.3   142  ALA142      0.1694
     44  C         38.7550   -2.1920   -4.0520 C.2   142  ALA142      0.2591
     45  O         39.8720   -2.2250   -3.5370 O.2   142  ALA142     -0.2718
     46  CB        38.4960   -0.7960   -6.0570 C.3   142  ALA142      0.0304
     47  N         37.6230   -2.1480   -3.3470 N.am  143  ALA143     -0.1980
     48  CA        37.6340   -2.1420   -1.8820 C.3   143  ALA143      0.1597
     49  C         38.1500   -3.4910   -1.3970 C.2   143  ALA143      0.2287
     50  O         39.0450   -3.5370   -0.5570 O.2   143  ALA143     -0.2864
     51  CB        36.2440   -1.8500   -1.3220 C.3   143  ALA143      0.0319
     52  N         41.9210   -3.9770   -1.9460 N.3   146  TYR146     -0.1241
     53  CA        42.6950   -3.2650   -0.9320 C.3   146  TYR146      0.1605
     54  C         42.7910   -4.1600    0.3040 C.2   146  TYR146      0.2264
     55  O         43.8910   -4.5000    0.7710 O.2   146  TYR146     -0.2867
     56  CB        42.0350   -1.9280   -0.5670 C.3   146  TYR146      0.0534
     57  CG        42.4920   -1.3500    0.7620 C.ar  146  TYR146     -0.0201
     58  CD1       43.6900   -0.6430    0.8820 C.ar  146  TYR146     -0.0009
     59  CD2       41.7190   -1.5180    1.8940 C.ar  146  TYR146     -0.0009
     60  CE1       44.0980   -0.1160    2.1150 C.ar  146  TYR146      0.0417
     61  CE2       42.1000   -1.0080    3.1240 C.ar  146  TYR146      0.0417
     62  CZ        43.2800   -0.3120    3.2390 C.ar  146  TYR146      0.1957
     63  OH        43.6000    0.1650    4.4930 O.3   146  TYR146     -0.2866
@<TRIPOS>BOND
     1    34    35    1
     2    39    41    1
     3    39    38    1
     4    35    38    1
     5    35    36    1
     6    38    40    1
     7    46    43    1
     8    42    43    1
     9    36    37    2
    10    43    44    1
    11    44    45    2
    12    44    47   am
    13    47    48    1
    14    52    53    1
    15    48    49    1
    16    48    51    1
    17    49    50    2
    18    53    56    1
    19    53    54    1
    20    56    57    1
    21    29    28    2
    22    32    30    1
    23    54    55    2
    24    28    27    1
    25    57    58   ar
    26    57    59   ar
    27    58    60   ar
    28    30    27    1
    29    30    31    1
    30    27    26    1
    31    59    61   ar
    32    33    31    1
    33    60    62   ar
    34    24    23    2
    35    61    62   ar
    36    62    63    1
    37    25    22    1
    38    23    22    1
    39    22    21    1
    40    20    19    2
    41    21    19   am
    42    19    18    1
    43    15    14    2
    44    14    13    1
    45    18    17    1
    46    16    13    1
    47    13    12    1
    48     8     7    2
    49     9    11    1
    50     9     6    1
    51     9    10    1
    52     6     7    1
    53     6     5    1
    54     4     3    2
    55     5     3   am
    56     3     2    1
    57     2     1    1
