@<TRIPOS>MOLECULE
tmp/1brrC05.pdb
 73 66 0 0 0
SMALL
GASTEIGER

@<TRIPOS>ATOM
      1  N         27.5590   -7.8560    5.6350 N.3    86  LEU86      -0.1245
      2  CA        27.7950   -6.5590    6.2640 C.3    86  LEU86       0.1561
      3  C         28.4640   -6.7120    7.6300 C.2    86  LEU86       0.2260
      4  O         29.4480   -6.0310    7.9120 O.2    86  LEU86      -0.2867
      5  CB        26.4720   -5.8100    6.4350 C.3    86  LEU86       0.0270
      6  CG        26.5690   -4.3720    6.9380 C.3    86  LEU86       0.0019
      7  CD1       27.2730   -3.5150    5.8950 C.3    86  LEU86       0.0001
      8  CD2       25.1990   -3.8320    7.2340 C.3    86  LEU86       0.0001
      9  N         40.6420   -0.5360   11.9130 N.3   108  LEU108     -0.1245
     10  CA        39.6100    0.3940   11.4860 C.3   108  LEU108      0.1561
     11  C         39.6640    0.5670    9.9650 C.2   108  LEU108      0.2260
     12  O         38.6460    0.5240    9.2900 O.2   108  LEU108     -0.2867
     13  CB        39.7820    1.7490   12.1770 C.3   108  LEU108      0.0270
     14  CG        38.5670    2.6810   12.0410 C.3   108  LEU108      0.0019
     15  CD1       37.3420    2.0490   12.7030 C.3   108  LEU108      0.0001
     16  CD2       38.8450    4.0370   12.6660 C.3   108  LEU108      0.0001
     17  N         38.0310   -2.7710    8.6670 N.3   111  VAL111     -0.1231
     18  CA        36.5900   -2.8860    8.8760 C.3   111  VAL111      0.1692
     19  C         35.8680   -1.8990    7.9410 C.2   111  VAL111      0.2592
     20  O         35.0790   -2.2990    7.0840 O.2   111  VAL111     -0.2718
     21  CB        36.2230   -2.5630   10.3310 C.3   111  VAL111      0.0266
     22  CG1       34.7300   -2.6680   10.5320 C.3   111  VAL111      0.0020
     23  CG2       36.9450   -3.4970   11.2470 C.3   111  VAL111      0.0020
     24  N         36.1980   -0.6190    8.0770 N.am  112  GLY112     -0.1957
     25  CA        35.5920    0.4040    7.2460 C.3   112  GLY112      0.1869
     26  C         35.6270    0.0890    5.7610 C.2   112  GLY112      0.2309
     27  O         34.6300    0.2720    5.0780 O.2   112  GLY112     -0.2863
     28  N         33.1280   -2.3550    5.0580 N.3   115  GLY115     -0.1210
     29  CA        31.8080   -1.7490    5.0710 C.3   115  GLY115      0.1956
     30  C         31.4890   -1.2170    3.6870 C.2   115  GLY115      0.2611
     31  O         30.4270   -1.4730    3.1390 O.2   115  GLY115     -0.2717
     32  N         32.4370   -0.5140    3.0920 N.am  116  ILE116     -0.1979
     33  CA        32.2230    0.0210    1.7650 C.3   116  ILE116      0.1595
     34  C         32.0590   -1.1160    0.7530 C.2   116  ILE116      0.2287
     35  O         31.2270   -1.0200   -0.1570 O.2   116  ILE116     -0.2864
     36  CB        33.3710    0.9570    1.3440 C.3   116  ILE116      0.0276
     37  CG1       33.5280    2.0820    2.3660 C.3   116  ILE116      0.0022
     38  CG2       33.0840    1.5560   -0.0300 C.3   116  ILE116      0.0022
     39  CD1       34.6700    3.0020    2.0760 C.3   116  ILE116      0.0001
     40  N         28.4090   -2.7540    1.5360 N.3   119  GLY119     -0.1210
     41  CA        27.5140   -1.6440    1.2670 C.3   119  GLY119      0.1956
     42  C         27.4180   -1.2720   -0.1970 C.2   119  GLY119      0.2612
     43  O         26.3250   -1.1750   -0.7350 O.2   119  GLY119     -0.2717
     44  N         28.5560   -1.0930   -0.8580 N.am  120  THR120     -0.1952
     45  CA        28.5490   -0.7330   -2.2790 C.3   120  THR120      0.1897
     46  C         27.9520   -1.8640   -3.1030 C.2   120  THR120      0.2313
     47  O         27.1740   -1.6210   -4.0430 O.2   120  THR120     -0.2863
     48  CB        29.9710   -0.3480   -2.7820 C.3   120  THR120      0.1794
     49  OG1       30.2320    1.0200   -2.4350 O.3   120  THR120     -0.2208
     50  CG2       30.0850   -0.4970   -4.2830 C.3   120  THR120      0.0378
     51  N         25.7390   -4.0550   -2.1010 N.3   122  LEU122     -0.1231
     52  CA        24.2970   -3.9930   -1.9090 C.3   122  LEU122      0.1693
     53  C         23.6560   -2.9730   -2.8690 C.2   122  LEU122      0.2591
     54  O         22.6880   -3.2890   -3.5700 O.2   122  LEU122     -0.2718
     55  CB        23.9770   -3.6410   -0.4560 C.3   122  LEU122      0.0284
     56  CG        22.5040   -3.4400   -0.1080 C.3   122  LEU122      0.0019
     57  CD1       21.7530   -4.7360   -0.1270 C.3   122  LEU122      0.0001
     58  CD2       22.4190   -2.8640    1.2390 C.3   122  LEU122      0.0001
     59  N         24.2530   -1.7880   -2.9480 N.am  123  VAL123     -0.1980
     60  CA        23.7610   -0.7060   -3.7930 C.3   123  VAL123      0.1595
     61  C         23.6820   -1.1060   -5.2440 C.2   123  VAL123      0.2287
     62  O         22.7040   -0.7850   -5.9190 O.2   123  VAL123     -0.2864
     63  CB        24.6620    0.5580   -3.6930 C.3   123  VAL123      0.0276
     64  CG1       24.3240    1.5440   -4.7940 C.3   123  VAL123      0.0022
     65  CG2       24.4900    1.2240   -2.3370 C.3   123  VAL123      0.0022
     66  N         20.9350   -3.5670   -6.0140 N.3   126  LEU126     -0.1245
     67  CA        19.6020   -2.9690   -6.0420 C.3   126  LEU126      0.1561
     68  C         19.3930   -1.8270   -7.0260 C.2   126  LEU126      0.2260
     69  O         18.3270   -1.2010   -7.0600 O.2   126  LEU126     -0.2867
     70  CB        19.2390   -2.5200   -4.6220 C.3   126  LEU126      0.0270
     71  CG        19.3050   -3.6930   -3.6330 C.3   126  LEU126      0.0019
     72  CD1       19.0830   -3.2260   -2.1910 C.3   126  LEU126      0.0001
     73  CD2       18.2730   -4.7410   -4.0560 C.3   126  LEU126      0.0001
@<TRIPOS>BOND
     1    69    68    2
     2    68    67    1
     3    67    66    1
     4    67    70    1
     5    62    61    2
     6    61    60    1
     7    64    63    1
     8    70    71    1
     9    50    48    1
    10    73    71    1
    11    47    46    2
    12    60    63    1
    13    60    59    1
    14    63    65    1
    15    71    72    1
    16    54    53    2
    17    46    45    1
    18    59    53   am
    19    53    52    1
    20    48    49    1
    21    48    45    1
    22    45    44    1
    23    51    52    1
    24    52    55    1
    25    44    42   am
    26    43    42    2
    27    55    56    1
    28    42    41    1
    29    35    34    2
    30    57    56    1
    31    56    58    1
    32    38    36    1
    33    34    33    1
    34    41    40    1
    35    36    33    1
    36    36    37    1
    37    33    32    1
    38    39    37    1
    39    32    30   am
    40    31    30    2
    41    30    29    1
    42    28    29    1
    43    27    26    2
    44     1     2    1
    45    26    25    1
    46     7     6    1
    47     2     5    1
    48     2     3    1
    49     5     6    1
    50     6     8    1
    51    20    19    2
    52    25    24    1
    53     3     4    2
    54    19    24   am
    55    19    18    1
    56    17    18    1
    57    18    21    1
    58    12    11    2
    59    11    10    1
    60    21    22    1
    61    21    23    1
    62    10     9    1
    63    10    13    1
    64    14    13    1
    65    14    16    1
    66    14    15    1
