@<TRIPOS>MOLECULE
tmp/1bruA00.pdb
 115 112 0 0 0
SMALL
GASTEIGER

@<TRIPOS>ATOM
      1  N         31.8350   42.0520   19.7030 N.3    29  THR29      -0.1203
      2  CA        30.4360   42.4750   19.8530 C.3    29  THR29       0.1994
      3  C         30.1130   43.9520   19.5440 C.2    29  THR29       0.2618
      4  O         29.0620   44.3270   19.0620 O.2    29  THR29      -0.2717
      5  CB        29.9560   42.0570   21.2440 C.3    29  THR29       0.1784
      6  OG1       28.5370   42.1250   21.2700 O.3    29  THR29      -0.2211
      7  CG2       30.5890   42.8550   22.3890 C.3    29  THR29       0.0376
      8  N         31.0760   44.8260   19.8050 N.am   30  CYS30      -0.1969
      9  CA        30.8890   46.2470   19.4800 C.3    30  CYS30       0.1712
     10  C         32.1720   46.9530   19.0640 C.2    30  CYS30       0.2296
     11  O         33.2830   46.4860   19.2700 O.2    30  CYS30      -0.2864
     12  CB        30.3700   46.9860   20.6990 C.3    30  CYS30       0.0983
     13  SG        28.6110   46.7360   20.9370 S.3    30  CYS30      -0.0798
     14  N         24.8810   50.5540   25.5570 N.3    45  HIS45      -0.1226
     15  CA        24.1590   49.3050   25.2610 C.3    45  HIS45       0.1752
     16  C         24.9840   48.0590   24.9170 C.2    45  HIS45       0.2596
     17  O         24.5410   46.9270   24.8480 O.2    45  HIS45      -0.2718
     18  CB        23.0720   49.5300   24.1700 C.3    45  HIS45       0.0759
     19  CG        23.5290   49.6520   22.7210 C.ar   45  HIS45       0.0818
     20  ND1       23.6890   50.8020   22.0380 N.ar   45  HIS45      -0.2268
     21  CD2       23.9150   48.6180   21.8870 C.ar   45  HIS45       0.1154
     22  CE1       24.1580   50.5000   20.8020 C.ar   45  HIS45       0.1986
     23  NE2       24.3000   49.1600   20.7100 N.ar   45  HIS45      -0.2212
     24  N         26.2560   48.3220   24.6710 N.am   46  CYS46      -0.1970
     25  CA        27.2080   47.2350   24.4280 C.3    46  CYS46       0.1712
     26  C         27.6950   46.5310   25.6880 C.2    46  CYS46       0.2296
     27  O         28.3740   45.5140   25.6760 O.2    46  CYS46      -0.2864
     28  CB        28.4170   47.8260   23.7040 C.3    46  CYS46       0.0983
     29  SG        28.0730   48.2890   22.0010 S.3    46  CYS46      -0.0798
     30  N         15.9250   53.2290   24.9060 N.3    88  LEU88      -0.1245
     31  CA        16.9910   53.6380   23.9810 C.3    88  LEU88       0.1561
     32  C         16.8580   55.0030   23.2250 C.2    88  LEU88       0.2260
     33  O         17.7820   55.7990   23.0740 O.2    88  LEU88      -0.2867
     34  CB        17.1400   52.4320   23.0610 C.3    88  LEU88       0.0270
     35  CG        18.1790   52.5520   21.9570 C.3    88  LEU88       0.0019
     36  CD1       19.6370   52.6450   22.4420 C.3    88  LEU88       0.0001
     37  CD2       17.8810   51.4010   21.0060 C.3    88  LEU88       0.0001
     38  N         25.3290   52.2920    9.1390 N.3   183  SER183     -0.1202
     39  CA        25.8770   51.3310   10.1060 C.3   183  SER183      0.2020
     40  C         25.0050   50.0990   10.2450 C.2   183  SER183      0.2619
     41  O         23.9260   50.0380    9.6940 O.2   183  SER183     -0.2717
     42  CB        26.0260   51.9850   11.4710 C.3   183  SER183      0.2103
     43  OG        24.7810   52.5210   11.8980 O.3   183  SER183     -0.2182
     44  N         25.4820   49.0790   10.9460 N.am  184  CYS184     -0.1955
     45  CA        24.6660   47.8480   11.0840 C.3   184  CYS184      0.1843
     46  C         25.1400   47.1170   12.3120 C.2   184  CYS184      0.2625
     47  O         26.2120   47.4310   12.8250 O.2   184  CYS184     -0.2714
     48  CB        24.7710   46.8690    9.8740 C.3   184  CYS184      0.0997
     49  SG        23.3600   45.7070    9.5910 S.3   184  CYS184     -0.0797
     50  N         24.3550   46.1570   12.7690 N.am  185  ASN185     -0.1958
     51  CA        24.7120   45.4020   13.9830 C.3   185  ASN185      0.1819
     52  C         26.1640   44.9360   14.0990 C.2   185  ASN185      0.2622
     53  O         26.7200   44.2970   13.2170 O.2   185  ASN185     -0.2715
     54  CB        23.8510   44.1560   14.0490 C.3   185  ASN185      0.1195
     55  CG        22.3760   44.4900   13.8580 C.2   185  ASN185      0.2630
     56  OD1       21.8970   44.8520   12.7990 O.2   185  ASN185     -0.2716
     57  ND2       21.6150   44.3610   14.9260 N.am  185  ASN185     -0.0877
     58  N         26.7910   45.3410   15.1780 N.am  186  GLY186     -0.1940
     59  CA        28.2290   45.1360   15.2460 C.3   186  GLY186      0.2014
     60  C         29.0200   46.4100   15.0800 C.2   186  GLY186      0.2639
     61  O         30.1440   46.5320   15.5090 O.2   186  GLY186     -0.2714
     62  N         28.4260   47.4010   14.4400 N.am  187  ASP187     -0.1957
     63  CA        29.1040   48.7040   14.4240 C.3   187  ASP187      0.1840
     64  C         28.8620   49.5730   15.6490 C.2   187  ASP187      0.2625
     65  O         29.4530   50.6180   15.8580 O.2   187  ASP187     -0.2714
     66  CB        28.6580   49.4970   13.1940 C.3   187  ASP187      0.1450
     67  CG        29.0750   48.8040   11.9130 C.2   187  ASP187      0.3671
     68  OD1       30.1860   48.3070   11.8700 O.co2 187  ASP187     -0.2456
     69  OD2       28.3050   48.7550   10.9530 O.co2 187  ASP187     -0.2456
     70  N         27.9000   49.1280   16.4630 N.am  188  SER188     -0.1896
     71  CA        27.4440   49.8140   17.6920 C.3   188  SER188      0.2236
     72  C         28.5870   50.1480   18.5730 C.2   188  SER188      0.2368
     73  O         29.5490   49.4150   18.7100 O.2   188  SER188     -0.2859
     74  CB        26.4550   48.9670   18.4640 C.2   188  SER188      0.2368
     75  OG        25.5400   48.3950   17.9020 O.2   188  SER188     -0.2859
     76  N         28.0460   55.0190   17.3520 N.3   207  VAL207     -0.1231
     77  CA        26.9130   54.2620   16.7770 C.3   207  VAL207      0.1692
     78  C         25.9630   53.6540   17.7890 C.2   207  VAL207      0.2593
     79  O         26.3340   52.8810   18.6500 O.2   207  VAL207     -0.2718
     80  CB        27.4060   53.1560   15.8220 C.3   207  VAL207      0.0266
     81  CG1       26.2660   52.3250   15.1960 C.3   207  VAL207      0.0020
     82  CG2       28.2650   53.7350   14.7120 C.3   207  VAL207      0.0020
     83  N         24.7230   54.0680   17.6570 N.am  208  SER208     -0.1938
     84  CA        23.7390   53.6710   18.6860 C.3   208  SER208      0.2055
     85  C         22.5900   52.8030   18.1270 C.2   208  SER208      0.2643
     86  O         22.4440   51.6270   18.4040 O.2   208  SER208     -0.2714
     87  CB        23.1930   54.9610   19.3740 C.3   208  SER208      0.2130
     88  OG        22.1800   54.6780   20.3430 O.3   208  SER208     -0.2179
     89  N         21.7850   53.4090   17.2670 N.am  209  PHE209     -0.1959
     90  CA        20.6870   52.6370   16.6870 C.3   209  PHE209      0.1771
     91  C         20.3010   52.9050   15.2140 C.2   209  PHE209      0.2620
     92  O         20.5150   53.9390   14.5960 O.2   209  PHE209     -0.2715
     93  CB        19.4580   52.6620   17.6580 C.3   209  PHE209      0.0574
     94  CG        18.7360   53.9940   17.8250 C.ar  209  PHE209     -0.0200
     95  CD1       17.7040   54.3430   16.9630 C.ar  209  PHE209     -0.0042
     96  CD2       19.1170   54.8820   18.8180 C.ar  209  PHE209     -0.0042
     97  CE1       17.0680   55.5700   17.0830 C.ar  209  PHE209     -0.0003
     98  CE2       18.4670   56.0970   18.9550 C.ar  209  PHE209     -0.0003
     99  CZ        17.4510   56.4510   18.0810 C.ar  209  PHE209     -0.0000
    100  N         19.7220   51.8750   14.6520 N.am  210  GLY210     -0.1954
    101  CA        19.0260   52.0140   13.3800 C.3   210  GLY210      0.1869
    102  C         17.5840   51.5430   13.4410 C.2   210  GLY210      0.2309
    103  O         17.0180   51.2690   14.4780 O.2   210  GLY210     -0.2863
    104  N         18.9270   47.8390    8.5250 N.3   215  CYS215     -0.1235
    105  CA        20.0490   48.7680    8.7780 C.3   215  CYS215      0.1677
    106  C         20.1120   49.9310    7.7670 C.2   215  CYS215      0.2270
    107  O         20.2480   51.1020    8.0770 O.2   215  CYS215     -0.2867
    108  CB        21.3770   47.9740    8.7690 C.3   215  CYS215      0.0956
    109  SG        21.6790   46.7800   10.1040 S.3   215  CYS215     -0.0801
    110  N         20.8750   56.1900   10.1730 N.3   222  SER222     -0.1217
    111  CA        21.6050   55.6870   11.3350 C.3   222  SER222      0.1889
    112  C         21.7360   56.7620   12.3600 C.2   222  SER222      0.2288
    113  O         22.0890   57.8770   12.0050 O.2   222  SER222     -0.2866
    114  CB        23.0270   55.3920   10.9240 C.3   222  SER222      0.2089
    115  OG        23.0270   54.3560    9.9390 O.3   222  SER222     -0.2183
@<TRIPOS>BOND
     1   106   107    2
     2   106   105    1
     3   104   105    1
     4   108   105    1
     5   108   109    1
     6    38    39    1
     7    49    48    1
     8    49   109    1
     9    41    40    2
    10    48    45    1
    11   115   114    1
    12    39    40    1
    13    39    42    1
    14   110   111    1
    15    40    44   am
    16   114   111    1
    17    44    45    1
    18    69    67   ar
    19    45    46    1
    20   111   112    1
    21    42    43    1
    22    68    67   ar
    23    67    66    1
    24   113   112    2
    25    46    50   am
    26    46    47    2
    27    50    51    1
    28    56    55    2
    29    66    63    1
    30    53    52    2
    31   101   102    1
    32   101   100    1
    33   102   103    2
    34    55    54    1
    35    55    57   am
    36    51    54    1
    37    51    52    1
    38    52    58   am
    39    63    62    1
    40    63    64    1
    41    62    60   am
    42    92    91    2
    43   100    91   am
    44    82    80    1
    45    60    59    1
    46    60    61    2
    47    58    59    1
    48    81    80    1
    49    91    90    1
    50    64    65    2
    51    64    70   am
    52    80    77    1
    53    70    71    1
    54    90    89    1
    55    90    93    1
    56    77    76    1
    57    77    78    1
    58    95    97   ar
    59    95    94   ar
    60    97    99   ar
    61    89    85   am
    62    83    78   am
    63    83    84    1
    64    93    94    1
    65    71    74    1
    66    71    72    1
    67    78    79    2
    68    94    96   ar
    69    75    74    2
    70    99    98   ar
    71    85    86    2
    72    85    84    1
    73    72    73    2
    74    84    87    1
    75    96    98   ar
    76     4     3    2
    77    10    11    2
    78    10     9    1
    79    87    88    1
    80     9     8    1
    81     9    12    1
    82     3     8   am
    83     3     2    1
    84     1     2    1
    85     2     5    1
    86    12    13    1
    87    23    22   ar
    88    23    21   ar
    89    22    20   ar
    90    13    29    1
    91    37    35    1
    92     5     6    1
    93     5     7    1
    94    21    19   ar
    95    35    36    1
    96    35    34    1
    97    29    28    1
    98    20    19   ar
    99    19    18    1
   100    34    31    1
   101    33    32    2
   102    32    31    1
   103    28    25    1
   104    31    30    1
   105    18    15    1
   106    25    24    1
   107    25    26    1
   108    24    16   am
   109    17    16    2
   110    16    15    1
   111    15    14    1
   112    27    26    2
