@<TRIPOS>MOLECULE
tmp/1brwB00.pdb
 118 110 0 0 0
SMALL
GASTEIGER

@<TRIPOS>ATOM
      1  N         32.8520    7.0260  106.3340 N.3    82  HIS82      -0.1226
      2  CA        34.0190    7.1140  105.4680 C.3    82  HIS82       0.1752
      3  C         34.4010    8.5460  105.1830 C.2    82  HIS82       0.2597
      4  O         33.5430    9.4170  105.0730 O.2    82  HIS82      -0.2718
      5  CB        33.7900    6.3670  104.1540 C.3    82  HIS82       0.0759
      6  CG        35.0280    5.7240  103.6060 C.ar   82  HIS82       0.0818
      7  ND1       36.0740    6.4480  103.0760 N.ar   82  HIS82      -0.2268
      8  CD2       35.3830    4.4200  103.5050 C.ar   82  HIS82       0.1154
      9  CE1       37.0190    5.6180  102.6690 C.ar   82  HIS82       0.1986
     10  NE2       36.6250    4.3820  102.9160 N.ar   82  HIS82      -0.2212
     11  N         35.7050    8.7850  105.0950 N.am   83  SER83      -0.1938
     12  CA        36.2450   10.1100  104.8070 C.3    83  SER83       0.2055
     13  C         36.7040   10.1710  103.3510 C.2    83  SER83       0.2644
     14  O         37.0110    9.1320  102.7500 O.2    83  SER83      -0.2714
     15  CB        37.4310   10.3990  105.7310 C.3    83  SER83       0.2130
     16  OG        37.9870   11.6700  105.4520 O.3    83  SER83      -0.2179
     17  N         36.7110   11.3750  102.7720 N.am   84  THR84      -0.1936
     18  CA        37.1730   11.5400  101.3970 C.3    84  THR84       0.2028
     19  C         38.6960   11.7720  101.3690 C.2    84  THR84       0.2642
     20  O         39.2610   12.1000  100.3270 O.2    84  THR84      -0.2714
     21  CB        36.4590   12.6950  100.6560 C.3    84  THR84       0.1808
     22  OG1       36.7400   13.9440  101.3000 O.3    84  THR84      -0.2208
     23  CG2       34.9580   12.4600  100.6220 C.3    84  THR84       0.0379
     24  N         39.3350   11.6060  102.5290 N.am   85  GLY85      -0.1954
     25  CA        40.7730   11.7670  102.6550 C.3    85  GLY85       0.1869
     26  C         41.2940   13.1190  103.1090 C.2    85  GLY85       0.2309
     27  O         40.9070   14.1610  102.5780 O.2    85  GLY85      -0.2863
     28  N         40.6990    1.8490  103.8320 N.3   111  GLY111     -0.1225
     29  CA        41.7840    1.6960  102.8760 C.3   111  GLY111      0.1811
     30  C         43.1150    2.1720  103.4300 C.2   111  GLY111      0.2280
     31  O         43.1810    2.6720  104.5610 O.2   111  GLY111     -0.2866
     32  N         46.7420    7.1300  100.4820 N.3   114  LEU114     -0.1245
     33  CA        46.3250    7.4960   99.1330 C.3   114  LEU114      0.1561
     34  C         46.8500    8.8900   98.8000 C.2   114  LEU114      0.2260
     35  O         46.2570    9.8990   99.2010 O.2   114  LEU114     -0.2867
     36  CB        44.7920    7.4700   99.0560 C.3   114  LEU114      0.0270
     37  CG        44.0920    7.6200   97.7050 C.3   114  LEU114      0.0019
     38  CD1       44.4430    6.4370   96.8150 C.3   114  LEU114      0.0001
     39  CD2       42.5740    7.6850   97.9190 C.3   114  LEU114      0.0001
     40  N         47.4220   11.7320  101.3900 N.3   117  THR117     -0.1218
     41  CA        46.5400   11.4140  102.5090 C.3   117  THR117      0.1862
     42  C         46.7940   10.0640  103.1630 C.2   117  THR117      0.2287
     43  O         47.1750    9.0910  102.5030 O.2   117  THR117     -0.2866
     44  CB        45.0160   11.5670  102.1270 C.3   117  THR117      0.1770
     45  OG1       44.6070   10.5360  101.2170 O.3   117  THR117     -0.2211
     46  CG2       44.7730   12.9120  101.4690 C.3   117  THR117      0.0375
     47  N         42.6560    1.2910   93.6140 N.3   165  TYR165     -0.1241
     48  CA        43.0120    2.1660   94.7330 C.3   165  TYR165      0.1605
     49  C         44.5420    2.2250   94.8870 C.2   165  TYR165      0.2264
     50  O         45.1200    3.3070   94.9870 O.2   165  TYR165     -0.2867
     51  CB        42.3710    1.6280   96.0240 C.3   165  TYR165      0.0534
     52  CG        42.4720    2.5190   97.2450 C.ar  165  TYR165     -0.0201
     53  CD1       43.5740    2.4470   98.0970 C.ar  165  TYR165     -0.0009
     54  CD2       41.4370    3.3910   97.5830 C.ar  165  TYR165     -0.0009
     55  CE1       43.6420    3.2180   99.2610 C.ar  165  TYR165      0.0417
     56  CE2       41.4930    4.1640   98.7420 C.ar  165  TYR165      0.0417
     57  CZ        42.5950    4.0710   99.5780 C.ar  165  TYR165      0.1957
     58  OH        42.6430    4.8080  100.7430 O.3   165  TYR165     -0.2866
     59  N         46.0520    4.1100   91.8170 N.3   168  ARG168     -0.1245
     60  CA        45.8280    5.5530   91.8600 C.3   168  ARG168      0.1563
     61  C         46.8070    6.2030   92.8330 C.2   168  ARG168      0.2260
     62  O         47.3690    7.2600   92.5470 O.2   168  ARG168     -0.2867
     63  CB        44.3860    5.8540   92.3030 C.3   168  ARG168      0.0307
     64  CG        43.3200    5.5570   91.2390 C.3   168  ARG168      0.0489
     65  CD        41.9060    5.4770   91.8480 C.3   168  ARG168      0.2205
     66  NE        41.5310    6.7150   92.5250 N.pl3 168  ARG168     -0.0865
     67  CZ        40.8820    6.7760   93.6830 C.cat 168  ARG168      0.5346
     68  NH1       40.5130    5.6620   94.3060 N.pl3 168  ARG168      0.1354
     69  NH2       40.6700    7.9550   94.2550 N.pl3 168  ARG168      0.1354
     70  N         44.5010   10.2860   92.1070 N.3   174  VAL174     -0.1245
     71  CA        43.6450   10.1920   93.2840 C.3   174  VAL174      0.1561
     72  C         42.5240   11.2450   93.3960 C.2   174  VAL174      0.2260
     73  O         41.4340   10.9420   93.8940 O.2   174  VAL174     -0.2867
     74  CB        44.4950   10.2810   94.5760 C.3   174  VAL174      0.0252
     75  CG1       45.4090    9.0920   94.6900 C.3   174  VAL174      0.0019
     76  CG2       45.3270   11.5610   94.5640 C.3   174  VAL174      0.0019
     77  N         36.9680    8.9900   93.1690 N.3   180  ILE180     -0.1245
     78  CA        36.8150    9.0660   94.6240 C.3   180  ILE180      0.1561
     79  C         35.4190    8.5440   95.0140 C.2   180  ILE180      0.2260
     80  O         35.2880    7.6650   95.8710 O.2   180  ILE180     -0.2867
     81  CB        36.9330   10.5310   95.1220 C.3   180  ILE180      0.0252
     82  CG1       38.3480   11.0690   94.8830 C.3   180  ILE180      0.0019
     83  CG2       36.5520   10.6340   96.6100 C.3   180  ILE180      0.0019
     84  CD1       38.5050   12.5340   95.2510 C.3   180  ILE180      0.0001
     85  N         34.9910    4.8410   94.3810 N.3   183  SER183     -0.1202
     86  CA        35.8470    4.0820   95.2850 C.3   183  SER183      0.2020
     87  C         35.1630    3.9350   96.6440 C.2   183  SER183      0.2618
     88  O         34.9360    2.8230   97.1280 O.2   183  SER183     -0.2717
     89  CB        37.2090    4.7800   95.4490 C.3   183  SER183      0.2103
     90  OG        38.0140    4.0990   96.3980 O.3   183  SER183     -0.2182
     91  N         34.8200    5.0680   97.2430 N.am  184  ILE184     -0.1979
     92  CA        34.1730    5.0720   98.5490 C.3   184  ILE184      0.1595
     93  C         32.8160    4.3580   98.5500 C.2   184  ILE184      0.2287
     94  O         32.6050    3.4270   99.3270 O.2   184  ILE184     -0.2864
     95  CB        34.0040    6.5040   99.0710 C.3   184  ILE184      0.0276
     96  CG1       35.3790    7.1390   99.2910 C.3   184  ILE184      0.0022
     97  CG2       33.1810    6.5090  100.3530 C.3   184  ILE184      0.0022
     98  CD1       35.3330    8.5690   99.8000 C.3   184  ILE184      0.0001
     99  N         32.6010    0.5420   98.3390 N.3   187  LYS187     -0.1245
    100  CA        32.9290   -0.1150   99.6040 C.3   187  LYS187      0.1561
    101  C         31.7140   -0.1110  100.5320 C.2   187  LYS187      0.2260
    102  O         31.3860   -1.1280  101.1430 O.2   187  LYS187     -0.2867
    103  CB        34.0870    0.5880  100.3270 C.3   187  LYS187      0.0271
    104  CG        35.4620    0.4270   99.6970 C.3   187  LYS187      0.0035
    105  CD        36.5340    0.8030  100.7110 C.3   187  LYS187      0.0206
    106  CE        37.8420    1.1510  100.0460 C.3   187  LYS187      0.1093
    107  NZ        37.7120    2.3930   99.2340 N.3   187  LYS187     -0.1314
    108  N         41.4770   16.6800   98.6400 N.3   207  PHE207     -0.1241
    109  CA        41.4850   16.5940   97.1800 C.3   207  PHE207      0.1605
    110  C         40.5670   17.6800   96.5910 C.2   207  PHE207      0.2264
    111  O         40.8010   18.1640   95.4790 O.2   207  PHE207     -0.2867
    112  CB        41.0440   15.2050   96.7170 C.3   207  PHE207      0.0534
    113  CG        41.9580   14.0970   97.1600 C.ar  207  PHE207     -0.0203
    114  CD1       43.3430   14.2260   97.0430 C.ar  207  PHE207     -0.0042
    115  CD2       41.4370   12.9060   97.6620 C.ar  207  PHE207     -0.0042
    116  CE1       44.1890   13.1840   97.4130 C.ar  207  PHE207     -0.0003
    117  CE2       42.2760   11.8590   98.0350 C.ar  207  PHE207     -0.0003
    118  CZ        43.6590   11.9990   97.9080 C.ar  207  PHE207     -0.0000
@<TRIPOS>BOND
     1    64    65    1
     2    64    63    1
     3    59    60    1
     4    65    66    1
     5    60    63    1
     6    60    61    1
     7    70    71    1
     8    66    67    2
     9    62    61    2
    10    77    78    1
    11    71    72    1
    12    71    74    1
    13    72    73    2
    14    47    48    1
    15    67    69    1
    16    67    68    1
    17    85    86    1
    18    76    74    1
    19    74    75    1
    20    78    79    1
    21    78    81    1
    22    48    49    1
    23    48    51    1
    24    82    81    1
    25    82    84    1
    26    49    50    2
    27    79    80    2
    28    81    83    1
    29    86    89    1
    30    86    87    1
    31    89    90    1
    32   111   110    2
    33    51    52    1
    34   110   109    1
    35    87    88    2
    36    87    91   am
    37   112   113    1
    38   112   109    1
    39    38    37    1
    40   114   113   ar
    41   114   116   ar
    42   113   115   ar
    43   109   108    1
    44    91    92    1
    45    52    54   ar
    46    52    53   ar
    47   116   118   ar
    48    54    56   ar
    49   115   117   ar
    50    37    39    1
    51    37    36    1
    52   118   117   ar
    53    53    55   ar
    54    99   100    1
    55    92    93    1
    56    92    95    1
    57    93    94    2
    58    56    57   ar
    59    34    33    1
    60    34    35    2
    61    36    33    1
    62    95    96    1
    63    95    97    1
    64    33    32    1
    65   107   106    1
    66    55    57   ar
    67    96    98    1
    68    57    58    1
    69   100   103    1
    70   100   101    1
    71   104   103    1
    72   104   105    1
    73   106   105    1
    74    20    19    2
    75   101   102    2
    76    23    21    1
    77    21    22    1
    78    21    18    1
    79    45    44    1
    80    19    18    1
    81    19    24   am
    82    40    41    1
    83    18    17    1
    84    46    44    1
    85    44    41    1
    86    43    42    2
    87    41    42    1
    88    24    25    1
    89    27    26    2
    90    25    26    1
    91     9    10   ar
    92     9     7   ar
    93    14    13    2
    94    17    13   am
    95    29    30    1
    96    29    28    1
    97    10     8   ar
    98     7     6   ar
    99    13    12    1
   100    30    31    2
   101     8     6   ar
   102     6     5    1
   103     5     2    1
   104    12    11    1
   105    12    15    1
   106     4     3    2
   107    11     3   am
   108     3     2    1
   109    16    15    1
   110     2     1    1
