@<TRIPOS>MOLECULE
tmp/1brwA00.pdb
 95 94 0 0 0
SMALL
GASTEIGER

@<TRIPOS>ATOM
      1  N         51.0750   14.6780   79.9550 N.3    45  ILE45      -0.1231
      2  CA        51.7350   15.5210   78.9410 C.3    45  ILE45       0.1692
      3  C         50.7880   15.7580   77.7470 C.2    45  ILE45       0.2592
      4  O         50.7770   16.8370   77.1420 O.2    45  ILE45      -0.2718
      5  CB        53.0620   14.8530   78.4240 C.3    45  ILE45       0.0266
      6  CG1       54.1080   14.8220   79.5380 C.3    45  ILE45       0.0019
      7  CG2       53.6110   15.5990   77.2070 C.3    45  ILE45       0.0020
      8  CD1       55.2950   13.9390   79.2390 C.3    45  ILE45       0.0001
      9  N         50.0230   14.7350   77.3850 N.am   46  TYR46      -0.1962
     10  CA        49.0650   14.8520   76.2840 C.3    46  TYR46       0.1771
     11  C         48.0800   16.0020   76.5510 C.2    46  TYR46       0.2620
     12  O         47.6860   16.7200   75.6350 O.2    46  TYR46      -0.2715
     13  CB        48.2900   13.5320   76.0940 C.3    46  TYR46       0.0574
     14  CG        47.2160   13.6060   75.0210 C.ar   46  TYR46      -0.0198
     15  CD1       45.9800   14.2130   75.2810 C.ar   46  TYR46      -0.0009
     16  CD2       47.4600   13.1430   73.7260 C.ar   46  TYR46      -0.0009
     17  CE1       45.0250   14.3690   74.2800 C.ar   46  TYR46       0.0417
     18  CE2       46.5130   13.2910   72.7150 C.ar   46  TYR46       0.0417
     19  CZ        45.2960   13.9080   73.0000 C.ar   46  TYR46       0.1957
     20  OH        44.3560   14.0700   72.0050 O.3    46  TYR46      -0.2866
     21  N         47.7240   16.1890   77.8180 N.am   47  PHE47      -0.1960
     22  CA        46.7800   17.2260   78.2160 C.3    47  PHE47       0.1771
     23  C         47.4080   18.5440   78.6490 C.2    47  PHE47       0.2619
     24  O         46.8300   19.6020   78.4120 O.2    47  PHE47      -0.2715
     25  CB        45.8580   16.7030   79.3320 C.3    47  PHE47       0.0574
     26  CG        44.7670   15.7760   78.8410 C.ar   47  PHE47      -0.0200
     27  CD1       43.7030   16.2690   78.0860 C.ar   47  PHE47      -0.0042
     28  CD2       44.8070   14.4160   79.1230 C.ar   47  PHE47      -0.0042
     29  CE1       42.6940   15.4110   77.6160 C.ar   47  PHE47      -0.0003
     30  CE2       43.8040   13.5520   78.6610 C.ar   47  PHE47      -0.0003
     31  CZ        42.7470   14.0540   77.9050 C.ar   47  PHE47      -0.0000
     32  N         48.5810   18.4900   79.2820 N.am   48  ARG48      -0.1963
     33  CA        49.2480   19.7060   79.7590 C.3    48  ARG48       0.1729
     34  C         50.3500   20.2900   78.8660 C.2    48  ARG48       0.2616
     35  O         50.6260   21.4900   78.9270 O.2    48  ARG48      -0.2715
     36  CB        49.7720   19.4980   81.1830 C.3    48  ARG48       0.0348
     37  CG        48.6820   19.4240   82.2510 C.3    48  ARG48       0.0492
     38  CD        47.7910   20.6610   82.2150 C.3    48  ARG48       0.2205
     39  NE        47.0160   20.8160   83.4420 N.pl3  48  ARG48      -0.0865
     40  CZ        45.8050   21.3670   83.5060 C.cat  48  ARG48       0.5346
     41  NH1       45.2070   21.8140   82.4060 N.pl3  48  ARG48       0.1354
     42  NH2       45.2120   21.5110   84.6850 N.pl3  48  ARG48       0.1354
     43  N         50.9660   19.4500   78.0360 N.am   49  GLY49      -0.1955
     44  CA        52.0240   19.9100   77.1420 C.3    49  GLY49       0.1869
     45  C         53.3580   20.2220   77.8120 C.2    49  GLY49       0.2309
     46  O         53.5810   19.9020   78.9810 O.2    49  GLY49      -0.2863
     47  N         49.7950   11.1350   69.5450 N.3   175  ASN175     -0.1225
     48  CA        49.6200   12.4980   69.0420 C.3   175  ASN175      0.1785
     49  C         49.7800   13.6250   70.0660 C.2   175  ASN175      0.2598
     50  O         48.8120   14.2850   70.4510 O.2   175  ASN175     -0.2718
     51  CB        48.2750   12.6130   68.3180 C.3   175  ASN175      0.1169
     52  CG        48.2450   13.7490   67.3160 C.2   175  ASN175      0.2627
     53  OD1       49.0320   14.7030   67.4000 O.2   175  ASN175     -0.2716
     54  ND2       47.3360   13.6520   66.3540 N.am  175  ASN175     -0.0877
     55  N         51.0220   13.8770   70.4580 N.am  176  SER176     -0.1938
     56  CA        51.3470   14.9270   71.4200 C.3   176  SER176      0.2055
     57  C         52.5750   15.6520   70.8650 C.2   176  SER176      0.2643
     58  O         53.5710   15.0040   70.5710 O.2   176  SER176     -0.2714
     59  CB        51.6670   14.2780   72.7780 C.3   176  SER176      0.2130
     60  OG        52.2980   15.1800   73.6710 O.3   176  SER176     -0.2179
     61  N         52.4960   16.9730   70.6880 N.am  177  ILE177     -0.1963
     62  CA        53.6260   17.7510   70.1580 C.3   177  ILE177      0.1712
     63  C         54.9840   17.4610   70.8290 C.2   177  ILE177      0.2458
     64  O         55.9450   17.0900   70.1480 O.2   177  ILE177     -0.2730
     65  CB        53.3270   19.2800   70.1440 C.3   177  ILE177      0.0289
     66  CG1       52.3870   19.6130   68.9820 C.3   177  ILE177      0.0022
     67  CG2       54.6140   20.0960   69.9860 C.3   177  ILE177      0.0023
     68  CD1       52.0010   21.0820   68.8950 C.3   177  ILE177      0.0001
     69  N         55.0720   17.5870   72.1640 N.am  178  PRO178     -0.2727
     70  CA        56.3270   17.3260   72.8730 C.3   178  PRO178      0.1402
     71  C         56.8760   15.9260   72.6070 C.2   178  PRO178      0.2269
     72  O         58.0710   15.7590   72.3820 O.2   178  PRO178     -0.2865
     73  CB        55.9190   17.4620   74.3370 C.3   178  PRO178      0.0296
     74  CG        54.8200   18.4380   74.2960 C.3   178  PRO178      0.0237
     75  CD        54.0240   17.9900   73.1170 C.3   178  PRO178      0.0939
     76  N         49.0120   23.9560   65.1060 N.3   213  GLU213     -0.1245
     77  CA        49.6900   22.8550   65.7920 C.3   213  GLU213      0.1567
     78  C         50.9660   22.5200   65.0250 C.2   213  GLU213      0.2260
     79  O         51.9910   22.1850   65.6240 O.2   213  GLU213     -0.2867
     80  CB        48.8240   21.5970   65.7890 C.3   213  GLU213      0.0388
     81  CG        47.5910   21.6110   66.6460 C.3   213  GLU213      0.1160
     82  CD        46.8330   20.3050   66.5090 C.2   213  GLU213      0.3649
     83  OE1       47.2710   19.2900   67.0920 O.co2 213  GLU213     -0.2457
     84  OE2       45.8210   20.2770   65.7810 O.co2 213  GLU213     -0.2457
     85  N         53.7450   25.1470   65.5990 N.3   216  ARG216     -0.1245
     86  CA        54.3730   24.9450   66.8950 C.3   216  ARG216      0.1563
     87  C         55.3120   23.7280   66.8700 C.2   216  ARG216      0.2260
     88  O         56.3250   23.7060   67.5690 O.2   216  ARG216     -0.2867
     89  CB        53.2940   24.7410   67.9700 C.3   216  ARG216      0.0307
     90  CG        52.4400   25.9750   68.2630 C.3   216  ARG216      0.0489
     91  CD        51.1400   25.6130   68.9840 C.3   216  ARG216      0.2205
     92  NE        51.3730   24.8260   70.1920 N.pl3 216  ARG216     -0.0865
     93  CZ        50.5070   23.9510   70.6960 C.cat 216  ARG216      0.5346
     94  NH1       49.3380   23.7480   70.1010 N.pl3 216  ARG216      0.1354
     95  NH2       50.8200   23.2570   71.7830 N.pl3 216  ARG216      0.1354
@<TRIPOS>BOND
     1    78    79    2
     2    78    77    1
     3    76    77    1
     4    85    86    1
     5    84    82   ar
     6    80    77    1
     7    80    81    1
     8    54    52   am
     9    82    81    1
    10    82    83   ar
    11    87    86    1
    12    87    88    2
    13    86    89    1
    14    52    53    2
    15    52    51    1
    16    89    90    1
    17    90    91    1
    18    51    48    1
    19    68    66    1
    20    66    65    1
    21    91    92    1
    22    48    47    1
    23    48    49    1
    24    67    65    1
    25    49    50    2
    26    49    55   am
    27    94    93    1
    28    65    62    1
    29    64    63    2
    30    62    61    1
    31    62    63    1
    32    92    93    2
    33    55    56    1
    34    58    57    2
    35    61    57   am
    36    93    95    1
    37    63    69   am
    38    57    56    1
    39    56    59    1
    40    20    19    1
    41    69    70    1
    42    69    75    1
    43    72    71    2
    44    71    70    1
    45    18    19   ar
    46    18    16   ar
    47    59    60    1
    48    70    73    1
    49    19    17   ar
    50    75    74    1
    51    16    14   ar
    52    17    15   ar
    53    74    73    1
    54    14    15   ar
    55    14    13    1
    56    12    11    2
    57    13    10    1
    58    10    11    1
    59    10     9    1
    60    11    21   am
    61     4     3    2
    62    44    45    1
    63    44    43    1
    64     7     5    1
    65     9     3   am
    66    29    31   ar
    67    29    27   ar
    68     3     2    1
    69    45    46    2
    70    21    22    1
    71    31    30   ar
    72    43    34   am
    73    27    26   ar
    74    22    23    1
    75    22    25    1
    76    24    23    2
    77     5     2    1
    78     5     6    1
    79    23    32   am
    80    30    28   ar
    81    26    28   ar
    82    26    25    1
    83    34    35    2
    84    34    33    1
    85     2     1    1
    86     8     6    1
    87    32    33    1
    88    33    36    1
    89    36    37    1
    90    38    37    1
    91    38    39    1
    92    41    40    1
    93    39    40    2
    94    40    42    1
