@<TRIPOS>MOLECULE
tmp/1bs1A00.pdb
 148 146 0 0 0
SMALL
GASTEIGER

@<TRIPOS>ATOM
      1  N          0.2070   25.6820    6.5290 N.3    11  THR11      -0.1203
      2  CA         0.2570   24.7590    7.6760 C.3    11  THR11       0.1994
      3  C          1.0860   23.5800    7.1660 C.2    11  THR11       0.2618
      4  O          1.2020   23.4270    5.9340 O.2    11  THR11      -0.2717
      5  CB        -1.1520   24.3380    8.1060 C.3    11  THR11       0.1784
      6  OG1       -1.1260   23.6030    9.3560 O.3    11  THR11      -0.2211
      7  CG2       -1.8450   23.5200    7.0220 C.3    11  THR11       0.0376
      8  N          1.6980   22.8000    8.0360 N.am   12  GLU12      -0.1965
      9  CA         2.4580   21.6210    7.6550 C.3    12  GLU12       0.1733
     10  C          3.6690   21.8560    6.7780 C.2    12  GLU12       0.2616
     11  O          3.9550   21.0730    5.8580 O.2    12  GLU12      -0.2715
     12  CB         1.4840   20.6240    7.0000 C.3    12  GLU12       0.0429
     13  CG         1.6280   19.1930    7.4490 C.3    12  GLU12       0.1163
     14  CD         1.4750   18.8870    8.9240 C.2    12  GLU12       0.3649
     15  OE1        0.8010   19.5740    9.7170 O.co2  12  GLU12      -0.2457
     16  OE2        2.0660   17.8790    9.3770 O.co2  12  GLU12      -0.2457
     17  N          4.4410   22.9080    7.0760 N.am   13  VAL13      -0.1963
     18  CA         5.6550   23.2060    6.3310 C.3    13  VAL13       0.1727
     19  C          6.9080   23.1630    7.2020 C.2    13  VAL13       0.2617
     20  O          8.0060   23.3310    6.6870 O.2    13  VAL13      -0.2715
     21  CB         5.5980   24.5690    5.6080 C.3    13  VAL13       0.0290
     22  CG1        4.4270   24.5950    4.6260 C.3    13  VAL13       0.0023
     23  CG2        5.5030   25.7280    6.5960 C.3    13  VAL13       0.0023
     24  N          6.7830   22.9840    8.5130 N.am   14  GLY14      -0.1940
     25  CA         7.9040   22.9670    9.4460 C.3    14  GLY14       0.2014
     26  C          8.0210   24.1030   10.4450 C.2    14  GLY14       0.2639
     27  O          9.1000   24.2830   11.0280 O.2    14  GLY14      -0.2714
     28  N          6.9960   24.9200   10.6740 N.am   15  LYS15      -0.1963
     29  CA         7.0990   25.9710   11.6810 C.3    15  LYS15       0.1728
     30  C          7.5710   25.3880   13.0240 C.2    15  LYS15       0.2617
     31  O          8.4470   25.9660   13.6720 O.2    15  LYS15      -0.2715
     32  CB         5.8010   26.7260   11.9790 C.3    15  LYS15       0.0311
     33  CG         5.2310   27.5290   10.8090 C.3    15  LYS15       0.0038
     34  CD         4.0260   28.3480   11.2350 C.3    15  LYS15       0.0206
     35  CE         2.8920   27.4790   11.7820 C.3    15  LYS15       0.1093
     36  NZ         2.2830   26.6960   10.6450 N.3    15  LYS15      -0.1314
     37  N          6.9070   24.3130   13.4630 N.am   16  THR16      -0.1937
     38  CA         7.2920   23.7290   14.7660 C.3    16  THR16       0.2028
     39  C          8.7150   23.2220   14.7670 C.2    16  THR16       0.2642
     40  O          9.4620   23.5110   15.7150 O.2    16  THR16      -0.2714
     41  CB         6.2810   22.6290   15.1530 C.3    16  THR16       0.1808
     42  OG1        4.9940   23.2880   15.2460 O.3    16  THR16      -0.2208
     43  CG2        6.6170   22.0300   16.5200 C.3    16  THR16       0.0379
     44  N          9.0890   22.4390   13.7420 N.am   17  VAL17      -0.1977
     45  CA        10.4560   21.9110   13.7110 C.3    17  VAL17       0.1596
     46  C         11.4470   23.0720   13.6770 C.2    17  VAL17       0.2287
     47  O         12.4420   23.0830   14.4130 O.2    17  VAL17      -0.2864
     48  CB        10.6360   20.9660   12.5000 C.3    17  VAL17       0.0276
     49  CG1       12.0900   20.7570   12.1470 C.3    17  VAL17       0.0022
     50  CG2        9.9590   19.6280   12.7880 C.3    17  VAL17       0.0022
     51  N          2.5680   20.7200   19.1590 N.3    54  ASP54      -0.1239
     52  CA         3.4950   21.8310   18.9310 C.3    54  ASP54       0.1674
     53  C          3.8810   22.4490   20.2820 C.2    54  ASP54       0.2266
     54  O          5.0400   22.7330   20.5760 O.2    54  ASP54      -0.2867
     55  CB         2.8320   22.9200   18.0680 C.3    54  ASP54       0.1410
     56  CG         2.4670   22.5520   16.6380 C.2    54  ASP54       0.3668
     57  OD1        2.6420   21.3770   16.2470 O.co2  54  ASP54      -0.2456
     58  OD2        1.9930   23.4380   15.8670 O.co2  54  ASP54      -0.2456
     59  N          5.1130   30.7960   18.2800 N.3   115  GLU115     -0.1245
     60  CA         4.7350   30.0920   17.0440 C.3   115  GLU115      0.1567
     61  C          3.2670   30.3770   16.7180 C.2   115  GLU115      0.2260
     62  O          2.4430   30.3000   17.6200 O.2   115  GLU115     -0.2867
     63  CB         4.9760   28.5790   17.1150 C.3   115  GLU115      0.0388
     64  CG         4.5930   27.9030   15.7920 C.3   115  GLU115      0.1160
     65  CD         4.5720   26.3850   15.8300 C.2   115  GLU115      0.3649
     66  OE1        5.0850   25.7940   16.7980 O.co2 115  GLU115     -0.2457
     67  OE2        4.0240   25.8350   14.8400 O.co2 115  GLU115     -0.2457
     68  N         13.2060   24.9910    5.2750 N.3   175  ASN175     -0.1225
     69  CA        13.0300   23.6760    5.8960 C.3   175  ASN175      0.1785
     70  C         12.8020   22.6200    4.8150 C.2   175  ASN175      0.2597
     71  O         11.9130   22.7190    3.9620 O.2   175  ASN175     -0.2718
     72  CB        11.8820   23.7270    6.8960 C.3   175  ASN175      0.1169
     73  CG        11.6800   22.3730    7.5720 C.2   175  ASN175      0.2627
     74  OD1       12.6440   21.8460    8.1030 O.2   175  ASN175     -0.2716
     75  ND2       10.4600   21.8610    7.5070 N.am  175  ASN175     -0.0877
     76  N         13.6950   21.6280    4.7950 N.am  176  ASP176     -0.1960
     77  CA        13.6430   20.5600    3.8080 C.3   176  ASP176      0.1840
     78  C         12.6590   19.4730    4.2340 C.2   176  ASP176      0.2621
     79  O         13.0140   18.4650    4.8600 O.2   176  ASP176     -0.2715
     80  CB        15.0320   19.9750    3.5940 C.3   176  ASP176      0.1450
     81  CG        16.0730   21.0030    3.2250 C.2   176  ASP176      0.3671
     82  OD1       15.7510   22.1620    2.8640 O.co2 176  ASP176     -0.2456
     83  OD2       17.2740   20.6650    3.2920 O.co2 176  ASP176     -0.2456
     84  N         11.4150   19.6670    3.8300 N.am  177  VAL177     -0.1977
     85  CA        10.3160   18.7870    4.1820 C.3   177  VAL177      0.1596
     86  C         10.3410   17.4270    3.5040 C.2   177  VAL177      0.2287
     87  O          9.7450   16.4660    4.0160 O.2   177  VAL177     -0.2864
     88  CB         8.9520   19.4740    3.9230 C.3   177  VAL177      0.0276
     89  CG1        8.7150   20.4720    5.0540 C.3   177  VAL177      0.0022
     90  CG2        8.8840   20.1390    2.5500 C.3   177  VAL177      0.0022
     91  N         17.2000   23.6230    7.5360 N.3   203  ILE203     -0.1231
     92  CA        17.0870   22.3760    8.3040 C.3   203  ILE203      0.1678
     93  C         16.9580   21.2380    7.2960 C.2   203  ILE203      0.2434
     94  O         16.1100   21.3410    6.4120 O.2   203  ILE203     -0.2733
     95  CB        15.9080   22.4510    9.2650 C.3   203  ILE203      0.0265
     96  CG1       16.2170   23.5840   10.2920 C.3   203  ILE203      0.0019
     97  CG2       15.6400   21.1440    9.9970 C.3   203  ILE203      0.0020
     98  CD1       14.9900   23.9890   11.0670 C.3   203  ILE203      0.0001
     99  N         17.8270   20.2450    7.3760 N.am  204  PRO204     -0.2718
    100  CA        17.8130   19.1550    6.4140 C.3   204  PRO204      0.1535
    101  C         16.6370   18.2120    6.6350 C.2   204  PRO204      0.2599
    102  O         15.9720   18.3150    7.6540 O.2   204  PRO204     -0.2715
    103  CB        19.1190   18.4090    6.6790 C.3   204  PRO204      0.0310
    104  CG        19.5820   18.8340    8.0350 C.3   204  PRO204      0.0237
    105  CD        18.8600   20.0950    8.4360 C.3   204  PRO204      0.0939
    106  N         16.3930   17.3310    5.6690 N.am  205  TRP205     -0.1960
    107  CA        15.3220   16.3360    5.7970 C.3   205  TRP205      0.1771
    108  C         15.7290   15.3110    6.8580 C.2   205  TRP205      0.2620
    109  O         16.6870   14.5490    6.7250 O.2   205  TRP205     -0.2715
    110  CB        15.0360   15.6690    4.4430 C.3   205  TRP205      0.0590
    111  CG        14.0270   14.5640    4.5160 C.ar  205  TRP205      0.0006
    112  CD1       12.6950   14.6970    4.7720 C.ar  205  TRP205      0.0946
    113  CD2       14.2710   13.1640    4.3300 C.ar  205  TRP205      0.0152
    114  NE1       12.0980   13.4570    4.7530 N.ar  205  TRP205     -0.2442
    115  CE2       13.0420   12.5050    4.4850 C.ar  205  TRP205      0.0810
    116  CE3       15.4020   12.4050    4.0510 C.ar  205  TRP205      0.0012
    117  CZ2       12.9040   11.1200    4.3750 C.ar  205  TRP205      0.0191
    118  CZ3       15.2670   11.0270    3.9340 C.ar  205  TRP205      0.0001
    119  CH2       14.0320   10.3970    4.1040 C.ar  205  TRP205      0.0015
    120  N         14.9850   15.3030    7.9570 N.am  206  LEU206     -0.1963
    121  CA        15.1850   14.4590    9.1240 C.3   206  LEU206      0.1728
    122  C         13.9320   13.6260    9.3810 C.2   206  LEU206      0.2616
    123  O         13.0390   14.0140   10.1360 O.2   206  LEU206     -0.2715
    124  CB        15.5070   15.3040   10.3700 C.3   206  LEU206      0.0311
    125  CG        16.8160   16.1020   10.2930 C.3   206  LEU206      0.0022
    126  CD1       16.7370   17.3240   11.1930 C.3   206  LEU206      0.0001
    127  CD2       17.9700   15.1800   10.6560 C.3   206  LEU206      0.0001
    128  N         13.8420   12.4980    8.6920 N.am  207  ALA207     -0.1977
    129  CA        12.6900   11.6120    8.7520 C.3   207  ALA207      0.1597
    130  C         12.1770   11.2920   10.1700 C.2   207  ALA207      0.2287
    131  O         10.9890   11.4850   10.4720 O.2   207  ALA207     -0.2864
    132  CB        13.0500   10.3460    7.9890 C.3   207  ALA207      0.0319
    133  N         12.0510   14.8290   14.0860 N.3   210  PRO210     -0.2102
    134  CA        12.8480   16.0200   13.8430 C.3   210  PRO210      0.1504
    135  C         12.7140   17.0790   14.9280 C.2   210  PRO210      0.2575
    136  O         13.5970   17.9280   15.0890 O.2   210  PRO210     -0.2718
    137  CB        12.3870   16.5110   12.4640 C.3   210  PRO210      0.0282
    138  CG        11.0580   15.8930   12.2260 C.3   210  PRO210      0.0208
    139  CD        11.0170   14.6250   13.0370 C.3   210  PRO210      0.0893
    140  N         11.6190   17.0620   15.6610 N.am  211  GLU211     -0.1980
    141  CA        11.3480   18.0090   16.7320 C.3   211  GLU211      0.1602
    142  C         12.3460   17.8850   17.8950 C.2   211  GLU211      0.2287
    143  O         12.6230   18.8720   18.6080 O.2   211  GLU211     -0.2864
    144  CB         9.9220   17.8380   17.2600 C.3   211  GLU211      0.0415
    145  CG         8.8210   18.1680   16.2580 C.3   211  GLU211      0.1163
    146  CD         8.5060   17.0680   15.2650 C.2   211  GLU211      0.3649
    147  OE1        8.9840   15.9180   15.4380 O.co2 211  GLU211     -0.2457
    148  OE2        7.7950   17.3210   14.2560 O.co2 211  GLU211     -0.2457
@<TRIPOS>BOND
     1    90    88    1
     2    82    81   ar
     3    81    83   ar
     4    81    80    1
     5    86    87    2
     6    86    85    1
     7    80    77    1
     8    77    78    1
     9    77    76    1
    10    84    85    1
    11    84    78   am
    12    88    85    1
    13    88    89    1
    14   118   116   ar
    15   118   119   ar
    16    71    70    2
    17   116   113   ar
    18   119   117   ar
    19    78    79    2
    20   113   115   ar
    21   113   111   ar
    22   117   115   ar
    23   110   111    1
    24   110   107    1
    25   115   114   ar
    26   111   112   ar
    27    22    21    1
    28   114   112   ar
    29    76    70   am
    30    70    69    1
    31    68    69    1
    32    21    18    1
    33    21    23    1
    34   106   107    1
    35   106   101   am
    36   107   108    1
    37    11    10    2
    38    69    72    1
    39     4     3    2
    40    18    17    1
    41    18    19    1
    42    94    93    2
    43   100   101    1
    44   100   103    1
    45   100    99    1
    46     1     2    1
    47   101   102    2
    48   103   104    1
    49    20    19    2
    50   109   108    2
    51    10    17   am
    52    10     9    1
    53   108   120   am
    54    72    73    1
    55    12    13    1
    56    12     9    1
    57     7     5    1
    58     3     2    1
    59     3     8   am
    60    19    24   am
    61    93    99   am
    62    93    92    1
    63    99   105    1
    64    13    14    1
    65    75    73   am
    66    91    92    1
    67    73    74    2
    68     9     8    1
    69     2     5    1
    70   120   121    1
    71   132   129    1
    72   104   105    1
    73     5     6    1
    74    92    95    1
    75    24    25    1
    76   128   129    1
    77   128   122   am
    78   129   130    1
    79    14    16   ar
    80    14    15   ar
    81   121   122    1
    82   121   124    1
    83    95    97    1
    84    95    96    1
    85   122   123    2
    86    25    26    1
    87   130   131    2
    88    96    98    1
    89   125   124    1
    90   125   127    1
    91   125   126    1
    92    26    28   am
    93    26    27    2
    94    36    35    1
    95    28    29    1
    96    33    34    1
    97    33    32    1
    98    34    35    1
    99    29    32    1
   100    29    30    1
   101    49    48    1
   102   138   137    1
   103   138   139    1
   104   137   134    1
   105    48    50    1
   106    48    45    1
   107    30    37   am
   108    30    31    2
   109   139   133    1
   110    37    38    1
   111    46    45    1
   112    46    47    2
   113    45    44    1
   114    44    39   am
   115   134   133    1
   116   134   135    1
   117   148   146   ar
   118    38    39    1
   119    38    41    1
   120    39    40    2
   121    67    65   ar
   122   135   136    2
   123   135   140   am
   124    41    42    1
   125    41    43    1
   126   146   147   ar
   127   146   145    1
   128   140   141    1
   129    64    65    1
   130    64    63    1
   131    65    66   ar
   132    58    56   ar
   133    57    56   ar
   134   145   144    1
   135    56    55    1
   136    61    60    1
   137    61    62    2
   138   141   144    1
   139   141   142    1
   140    60    63    1
   141    60    59    1
   142   142   143    2
   143    55    52    1
   144    52    51    1
   145    52    53    1
   146    53    54    2
