@<TRIPOS>MOLECULE
tmp/1bs1A01.pdb
 130 125 0 0 0
SMALL
GASTEIGER

@<TRIPOS>ATOM
      1  N          0.2070   25.6820    6.5290 N.3    11  THR11      -0.1203
      2  CA         0.2570   24.7590    7.6760 C.3    11  THR11       0.1994
      3  C          1.0860   23.5800    7.1660 C.2    11  THR11       0.2617
      4  O          1.2020   23.4270    5.9340 O.2    11  THR11      -0.2717
      5  CB        -1.1520   24.3380    8.1060 C.3    11  THR11       0.1784
      6  OG1       -1.1260   23.6030    9.3560 O.3    11  THR11      -0.2211
      7  CG2       -1.8450   23.5200    7.0220 C.3    11  THR11       0.0376
      8  N          1.6980   22.8000    8.0360 N.am   12  GLU12      -0.1979
      9  CA         2.4580   21.6210    7.6550 C.3    12  GLU12       0.1602
     10  C          3.6690   21.8560    6.7780 C.2    12  GLU12       0.2287
     11  O          3.9550   21.0730    5.8580 O.2    12  GLU12      -0.2864
     12  CB         1.4840   20.6240    7.0000 C.3    12  GLU12       0.0415
     13  CG         1.6280   19.1930    7.4490 C.3    12  GLU12       0.1163
     14  CD         1.4750   18.8870    8.9240 C.2    12  GLU12       0.3649
     15  OE1        0.8010   19.5740    9.7170 O.co2  12  GLU12      -0.2457
     16  OE2        2.0660   17.8790    9.3770 O.co2  12  GLU12      -0.2457
     17  N          6.9960   24.9200   10.6740 N.3    15  LYS15      -0.1245
     18  CA         7.0990   25.9710   11.6810 C.3    15  LYS15       0.1561
     19  C          7.5710   25.3880   13.0240 C.2    15  LYS15       0.2260
     20  O          8.4470   25.9660   13.6720 O.2    15  LYS15      -0.2867
     21  CB         5.8010   26.7260   11.9790 C.3    15  LYS15       0.0271
     22  CG         5.2310   27.5290   10.8090 C.3    15  LYS15       0.0035
     23  CD         4.0260   28.3480   11.2350 C.3    15  LYS15       0.0206
     24  CE         2.8920   27.4790   11.7820 C.3    15  LYS15       0.1093
     25  NZ         2.2830   26.6960   10.6450 N.3    15  LYS15      -0.1314
     26  N          3.0130   29.0770   22.1990 N.3    37  LYS37      -0.1245
     27  CA         2.0260   28.7330   21.1530 C.3    37  LYS37       0.1561
     28  C          0.6950   29.1400   21.7780 C.2    37  LYS37       0.2260
     29  O         -0.0060   28.3120   22.3770 O.2    37  LYS37      -0.2867
     30  CB         2.0500   27.2170   20.9120 C.3    37  LYS37       0.0271
     31  CG         1.0030   26.6910   19.9320 C.3    37  LYS37       0.0035
     32  CD         1.5100   26.6550   18.4890 C.3    37  LYS37       0.0206
     33  CE         0.4830   26.0200   17.5590 C.3    37  LYS37       0.1093
     34  NZ         0.8600   26.0110   16.1120 N.3    37  LYS37      -0.1314
     35  N         -3.7270   26.8860   19.7550 N.3    40  ALA40      -0.1231
     36  CA        -3.4100   25.6190   19.0830 C.3    40  ALA40       0.1694
     37  C         -4.6750   24.8030   18.8290 C.2    40  ALA40       0.2593
     38  O         -5.5240   24.7720   19.7040 O.2    40  ALA40      -0.2718
     39  CB        -2.4660   24.8380   20.0120 C.3    40  ALA40       0.0304
     40  N         -4.7890   24.1580   17.6800 N.am   41  SER41      -0.1938
     41  CA        -5.9120   23.2920   17.3510 C.3    41  SER41       0.2055
     42  C         -5.3520   21.9800   16.8040 C.2    41  SER41       0.2643
     43  O         -4.3540   21.9960   16.0670 O.2    41  SER41      -0.2714
     44  CB        -6.9190   23.9520   16.4160 C.3    41  SER41       0.2130
     45  OG        -6.3580   24.2540   15.1410 O.3    41  SER41      -0.2179
     46  N         -5.9940   20.8650   17.1440 N.am   42  GLY42      -0.1954
     47  CA        -5.4570   19.5520   16.6980 C.3    42  GLY42       0.1869
     48  C         -4.6360   19.0800   17.9240 C.2    42  GLY42       0.2309
     49  O         -3.4220   19.2400   17.9830 O.2    42  GLY42      -0.2863
     50  N         -1.4670   19.8790   23.0230 N.3    52  ASN52      -0.1240
     51  CA        -1.1430   20.0230   21.5890 C.3    52  ASN52       0.1653
     52  C          0.3120   19.6450   21.3670 C.2    52  ASN52       0.2266
     53  O          1.1510   20.1050   22.1450 O.2    52  ASN52      -0.2867
     54  CB        -1.3800   21.4730   21.1520 C.3    52  ASN52       0.1155
     55  CG        -0.8980   21.7320   19.7350 C.2    52  ASN52       0.2627
     56  OD1       -1.5820   21.4270   18.7350 O.2    52  ASN52      -0.2716
     57  ND2        0.2690   22.3410   19.6690 N.am   52  ASN52      -0.0877
     58  N          2.5680   20.7200   19.1590 N.3    54  ASP54      -0.1239
     59  CA         3.4950   21.8310   18.9310 C.3    54  ASP54       0.1674
     60  C          3.8810   22.4490   20.2820 C.2    54  ASP54       0.2266
     61  O          5.0400   22.7330   20.5760 O.2    54  ASP54      -0.2867
     62  CB         2.8320   22.9200   18.0680 C.3    54  ASP54       0.1410
     63  CG         2.4670   22.5520   16.6380 C.2    54  ASP54       0.3668
     64  OD1        2.6420   21.3770   16.2470 O.co2  54  ASP54      -0.2456
     65  OD2        1.9930   23.4380   15.8670 O.co2  54  ASP54      -0.2456
     66  N         -8.5470   19.6730   14.6970 N.3    79  PRO79      -0.2102
     67  CA        -7.5870   20.3270   13.8160 C.3    79  PRO79       0.1504
     68  C         -8.2410   21.0970   12.6820 C.2    79  PRO79       0.2576
     69  O         -8.2000   20.7330   11.4910 O.2    79  PRO79      -0.2718
     70  CB        -6.7610   19.1580   13.2610 C.3    79  PRO79       0.0282
     71  CG        -7.7370   18.0350   13.2080 C.3    79  PRO79       0.0208
     72  CD        -8.6420   18.2140   14.4000 C.3    79  PRO79       0.0893
     73  N         -8.8600   22.2240   13.0310 N.am   80  THR80      -0.1939
     74  CA        -9.5070   23.0850   12.0210 C.3    80  THR80       0.2028
     75  C         -9.0930   24.5210   12.3010 C.2    80  THR80       0.2643
     76  O         -8.2940   24.7410   13.2390 O.2    80  THR80      -0.2714
     77  CB       -11.0320   22.9160   12.0230 C.3    80  THR80       0.1808
     78  OG1      -11.6440   23.6820   10.9650 O.3    80  THR80      -0.2208
     79  CG2      -11.6410   23.3410   13.3520 C.3    80  THR80       0.0379
     80  N         -9.6390   25.4850   11.5570 N.am   81  SER81      -0.1936
     81  CA        -9.2550   26.8820   11.8730 C.3    81  SER81       0.2040
     82  C         -9.6960   27.2240   13.2920 C.2    81  SER81       0.2485
     83  O        -10.8090   26.9320   13.7060 O.2    81  SER81      -0.2729
     84  CB        -9.9140   27.7830   10.8150 C.3    81  SER81       0.2129
     85  OG        -9.5070   29.1320   10.9380 O.3    81  SER81      -0.2179
     86  N         -8.8420   27.9120   14.0620 N.am   82  PRO82      -0.2726
     87  CA        -9.1230   28.3090   15.4310 C.3    82  PRO82       0.1402
     88  C        -10.4490   29.0310   15.5560 C.2    82  PRO82       0.2269
     89  O        -11.2160   28.7200   16.4780 O.2    82  PRO82      -0.2865
     90  CB        -7.9400   29.2080   15.8070 C.3    82  PRO82       0.0296
     91  CG        -6.8220   28.6180   15.0080 C.3    82  PRO82       0.0237
     92  CD        -7.4720   28.3100   13.6570 C.3    82  PRO82       0.0939
     93  N         -0.3820   29.8570   14.2640 N.3   117  ALA117     -0.1231
     94  CA        -1.1520   28.6440   13.9210 C.3   117  ALA117      0.1694
     95  C         -1.4900   28.7450   12.4250 C.2   117  ALA117      0.2593
     96  O         -1.9360   29.8100   11.9840 O.2   117  ALA117     -0.2718
     97  CB        -2.3980   28.5210   14.7690 C.3   117  ALA117      0.0304
     98  N         -1.1530   27.7140   11.6520 N.am  118  GLY118     -0.1942
     99  CA        -1.3800   27.7700   10.1980 C.3   118  GLY118      0.2014
    100  C         -0.4680   28.8540    9.6070 C.2   118  GLY118      0.2639
    101  O          0.6650   29.0170   10.0800 O.2   118  GLY118     -0.2714
    102  N         -0.9690   29.5290    8.5840 N.am  119  GLY119     -0.1954
    103  CA        -0.2200   30.5960    7.9260 C.3   119  GLY119      0.1869
    104  C         -0.5380   31.9650    8.5250 C.2   119  GLY119      0.2309
    105  O         -1.0980   32.0890    9.6110 O.2   119  GLY119     -0.2863
    106  N         -2.5860   34.6110    7.8050 N.3   121  PHE121     -0.1227
    107  CA        -3.9350   35.1450    8.0240 C.3   121  PHE121      0.1736
    108  C         -4.9070   34.2120    8.7070 C.2   121  PHE121      0.2596
    109  O         -6.1210   34.4730    8.6830 O.2   121  PHE121     -0.2718
    110  CB        -4.4680   35.6070    6.6630 C.3   121  PHE121      0.0547
    111  CG        -4.0930   36.9930    6.2320 C.ar  121  PHE121     -0.0202
    112  CD1       -4.2240   38.0830    7.0780 C.ar  121  PHE121     -0.0042
    113  CD2       -3.6260   37.1670    4.9290 C.ar  121  PHE121     -0.0042
    114  CE1       -3.8940   39.3540    6.6210 C.ar  121  PHE121     -0.0003
    115  CE2       -3.2890   38.4410    4.4800 C.ar  121  PHE121     -0.0003
    116  CZ        -3.4300   39.5180    5.3310 C.ar  121  PHE121     -0.0000
    117  N         -4.4610   33.1970    9.4450 N.am  122  THR122     -0.1939
    118  CA        -5.3870   32.3190   10.1490 C.3   122  THR122      0.2013
    119  C         -6.3370   33.0580   11.0740 C.2   122  THR122      0.2484
    120  O         -5.9110   33.6920   12.0590 O.2   122  THR122     -0.2729
    121  CB        -4.5410   31.3370   11.0150 C.3   122  THR122      0.1807
    122  OG1       -3.7380   30.5950   10.0950 O.3   122  THR122     -0.2208
    123  CG2       -5.4240   30.4120   11.8260 C.3   122  THR122      0.0379
    124  N         -7.6390   32.9210   10.8810 N.am  123  PRO123     -0.2726
    125  CA        -8.6100   33.6020   11.7040 C.3   123  PRO123      0.1402
    126  C         -8.6880   33.0960   13.1490 C.2   123  PRO123      0.2269
    127  O         -8.5930   31.8930   13.3990 O.2   123  PRO123     -0.2865
    128  CB        -9.9410   33.4160   10.9880 C.3   123  PRO123      0.0296
    129  CG        -9.5420   33.1130    9.5620 C.3   123  PRO123      0.0237
    130  CD        -8.2810   32.2720    9.6930 C.3   123  PRO123      0.0939
@<TRIPOS>BOND
     1   115   113   ar
     2   115   116   ar
     3   113   111   ar
     4   116   114   ar
     5    11    10    2
     6     4     3    2
     7   111   110    1
     8   111   112   ar
     9     1     2    1
    10   114   112   ar
    11   110   107    1
    12    10     9    1
    13    12    13    1
    14    12     9    1
    15     7     5    1
    16     3     2    1
    17     3     8   am
    18    13    14    1
    19     9     8    1
    20     2     5    1
    21   106   107    1
    22   103   104    1
    23   103   102    1
    24   107   108    1
    25     5     6    1
    26   104   105    2
    27   102   100   am
    28   109   108    2
    29   108   117   am
    30    14    16   ar
    31    14    15   ar
    32   117   118    1
    33   129   130    1
    34   129   128    1
    35   100   101    2
    36   100    99    1
    37   130   124    1
    38   122   121    1
    39   118   121    1
    40   118   119    1
    41    99    98    1
    42    25    24    1
    43    17    18    1
    44    22    23    1
    45    22    21    1
    46    84    85    1
    47    84    81    1
    48   124   119   am
    49   124   125    1
    50    78    77    1
    51   128   125    1
    52   121   123    1
    53   119   120    2
    54    23    24    1
    55    69    68    2
    56    80    81    1
    57    80    75   am
    58    98    95   am
    59    18    21    1
    60    18    19    1
    61   125   126    1
    62    81    82    1
    63    96    95    2
    64    74    77    1
    65    74    75    1
    66    74    73    1
    67    77    79    1
    68    75    76    2
    69    95    94    1
    70    68    73   am
    71    68    67    1
    72    19    20    2
    73   126   127    2
    74    71    70    1
    75    71    72    1
    76    70    67    1
    77    82    83    2
    78    82    86   am
    79    92    86    1
    80    92    91    1
    81    67    66    1
    82    94    93    1
    83    94    97    1
    84    86    87    1
    85    72    66    1
    86    91    90    1
    87    45    44    1
    88    87    88    1
    89    87    90    1
    90    88    89    2
    91    65    63   ar
    92    43    42    2
    93    34    33    1
    94    64    63   ar
    95    44    41    1
    96    63    62    1
    97    47    46    1
    98    47    48    1
    99    42    46   am
   100    42    41    1
   101    41    40    1
   102    33    32    1
   103    40    37   am
   104    48    49    2
   105    62    59    1
   106    32    31    1
   107    56    55    2
   108    37    36    1
   109    37    38    2
   110    59    58    1
   111    59    60    1
   112    36    35    1
   113    36    39    1
   114    57    55   am
   115    55    54    1
   116    31    30    1
   117    60    61    2
   118    30    27    1
   119    54    51    1
   120    27    28    1
   121    27    26    1
   122    52    51    1
   123    52    53    2
   124    51    50    1
   125    28    29    2
