@<TRIPOS>MOLECULE
tmp/1bs4B00.pdb
 146 141 0 0 0
SMALL
GASTEIGER

@<TRIPOS>ATOM
      1  N         84.5040   47.3170   45.6590 N.3    41  GLU41      -0.1231
      2  CA        84.5080   48.4940   46.5210 C.3    41  GLU41       0.1699
      3  C         85.6680   49.4310   46.2310 C.2    41  GLU41       0.2592
      4  O         85.8060   50.4460   46.9060 O.2    41  GLU41      -0.2718
      5  CB        84.5760   48.0800   47.9880 C.3    41  GLU41       0.0402
      6  CG        83.4860   47.1110   48.3560 C.3    41  GLU41       0.1161
      7  CD        82.1140   47.5320   47.8060 C.2    41  GLU41       0.3649
      8  OE1       81.7560   48.7300   47.9330 O.co2  41  GLU41      -0.2457
      9  OE2       81.3940   46.6640   47.2520 O.co2  41  GLU41      -0.2457
     10  N         86.5580   49.0280   45.3190 N.am   42  GLU42      -0.1966
     11  CA        87.7550   49.7880   44.9530 C.3    42  GLU42       0.1733
     12  C         88.7600   49.9850   46.0990 C.2    42  GLU42       0.2617
     13  O         89.2800   51.0740   46.3090 O.2    42  GLU42      -0.2715
     14  CB        87.3500   51.1320   44.3300 C.3    42  GLU42       0.0429
     15  CG        86.6550   50.9260   42.9860 C.3    42  GLU42       0.1163
     16  CD        86.2960   52.2070   42.2650 C.2    42  GLU42       0.3649
     17  OE1       85.6540   53.0870   42.8730 O.co2  42  GLU42      -0.2457
     18  OE2       86.5610   52.2890   41.0460 O.co2  42  GLU42      -0.2457
     19  N         89.0190   48.9170   46.8390 N.am   43  GLY43      -0.1940
     20  CA        90.0380   48.9690   47.8630 C.3    43  GLY43       0.2014
     21  C         91.3330   48.4060   47.3270 C.2    43  GLY43       0.2639
     22  O         91.3340   47.8270   46.2300 O.2    43  GLY43      -0.2714
     23  N         92.4300   48.5620   48.0750 N.am   44  ILE44      -0.1963
     24  CA        93.6960   47.9000   47.7240 C.3    44  ILE44       0.1727
     25  C         94.0890   46.7700   48.6820 C.2    44  ILE44       0.2616
     26  O         95.0670   46.0750   48.4700 O.2    44  ILE44      -0.2715
     27  CB        94.8790   48.9080   47.5980 C.3    44  ILE44       0.0290
     28  CG1       95.0740   49.6790   48.8930 C.3    44  ILE44       0.0022
     29  CG2       94.6200   49.8820   46.4540 C.3    44  ILE44       0.0023
     30  CD1       96.3670   50.5210   48.8800 C.3    44  ILE44       0.0001
     31  N         93.2820   46.5650   49.7090 N.am   45  GLY45      -0.1955
     32  CA        93.4780   45.4350   50.5820 C.3    45  GLY45       0.1869
     33  C         92.1660   45.0850   51.2430 C.2    45  GLY45       0.2309
     34  O         91.2760   45.9280   51.3700 O.2    45  GLY45      -0.2863
     35  N        101.5620   57.2170   56.0720 N.3    86  ILE86      -0.1231
     36  CA       100.8490   57.6530   54.8850 C.3    86  ILE86       0.1692
     37  C         99.4110   57.8460   55.3750 C.2    86  ILE86       0.2592
     38  O         99.0490   57.3420   56.4380 O.2    86  ILE86      -0.2718
     39  CB       100.9900   56.5460   53.7810 C.3    86  ILE86       0.0266
     40  CG1      101.5140   57.1660   52.5200 C.3    86  ILE86       0.0019
     41  CG2       99.7220   55.7600   53.5400 C.3    86  ILE86       0.0020
     42  CD1      102.9990   57.2640   52.5160 C.3    86  ILE86       0.0001
     43  N         98.6220   58.6610   54.6890 N.am   87  GLU87      -0.1966
     44  CA        97.2240   58.7640   55.0650 C.3    87  GLU87       0.1733
     45  C         96.4570   57.5350   54.5960 C.2    87  GLU87       0.2616
     46  O         96.2980   57.3100   53.4070 O.2    87  GLU87      -0.2715
     47  CB        96.6220   60.0600   54.5280 C.3    87  GLU87       0.0429
     48  CG        96.7990   61.1970   55.5180 C.3    87  GLU87       0.1163
     49  CD        96.4480   62.5550   54.9610 C.2    87  GLU87       0.3649
     50  OE1       95.8100   62.6230   53.8930 O.co2  87  GLU87      -0.2457
     51  OE2       96.8020   63.5700   55.6000 O.co2  87  GLU87      -0.2457
     52  N         96.1910   56.6370   55.5360 N.am   88  GLU88      -0.1963
     53  CA        95.5820   55.3450   55.2410 C.3    88  GLU88       0.1733
     54  C         94.0720   55.4140   55.1470 C.2    88  GLU88       0.2617
     55  O         93.4380   56.1370   55.8990 O.2    88  GLU88      -0.2715
     56  CB        95.9600   54.3280   56.3190 C.3    88  GLU88       0.0429
     57  CG        97.4340   54.0190   56.3340 C.3    88  GLU88       0.1163
     58  CD        97.7930   52.9240   57.3050 C.2    88  GLU88       0.3649
     59  OE1       96.9280   52.1130   57.6730 O.co2  88  GLU88      -0.2457
     60  OE2       98.9500   52.8700   57.7200 O.co2  88  GLU88      -0.2457
     61  N         93.5070   54.6610   54.2090 N.am   89  GLY89      -0.1940
     62  CA        92.0740   54.4290   54.1980 C.3    89  GLY89       0.2014
     63  C         91.7550   53.0070   54.6180 C.2    89  GLY89       0.2639
     64  O         92.6590   52.2390   54.9370 O.2    89  GLY89      -0.2714
     65  N         90.4690   52.6670   54.6090 N.am   90  CYS90      -0.1953
     66  CA        89.9760   51.3480   55.0110 C.3    90  CYS90       0.1843
     67  C         88.5140   51.2310   54.5650 C.2    90  CYS90       0.2625
     68  O         87.6990   52.0990   54.8580 O.2    90  CYS90      -0.2714
     69  CB        90.0480   51.1810   56.5350 C.3    90  CYS90       0.0997
     70  SG        89.6230   49.5290   57.1200 S.3    90  CYS90      -0.0797
     71  N         88.1710   50.1260   53.9200 N.am   91  LEU91      -0.1977
     72  CA        86.7950   49.9140   53.4890 C.3    91  LEU91       0.1596
     73  C         85.8340   49.8100   54.6690 C.2    91  LEU91       0.2287
     74  O         84.6340   50.0440   54.5200 O.2    91  LEU91      -0.2864
     75  CB        86.7030   48.6600   52.6120 C.3    91  LEU91       0.0297
     76  CG        87.4830   48.7380   51.2990 C.3    91  LEU91       0.0022
     77  CD1       87.3040   47.4350   50.5230 C.3    91  LEU91       0.0001
     78  CD2       87.0030   49.9390   50.4880 C.3    91  LEU91       0.0001
     79  N         84.5840   53.9240   55.8780 N.3    94  PRO94      -0.2102
     80  CA        84.4050   54.5780   54.5830 C.3    94  PRO94       0.1504
     81  C         84.6450   56.0800   54.5860 C.2    94  PRO94       0.2575
     82  O         84.2760   56.7920   55.5210 O.2    94  PRO94      -0.2718
     83  CB        82.9630   54.2170   54.1850 C.3    94  PRO94       0.0282
     84  CG        82.3310   53.6920   55.4110 C.3    94  PRO94       0.0208
     85  CD        83.4470   53.0330   56.1650 C.3    94  PRO94       0.0893
     86  N         85.4820   56.4770   53.6370 N.am   95  GLU95      -0.1980
     87  CA        85.7460   57.8630   53.3040 C.3    95  GLU95       0.1602
     88  C         86.5920   58.6250   54.3050 C.2    95  GLU95       0.2287
     89  O         86.8400   59.8130   54.1040 O.2    95  GLU95      -0.2864
     90  CB        84.4370   58.6000   53.0410 C.3    95  GLU95       0.0415
     91  CG        83.7580   58.1170   51.7730 C.3    95  GLU95       0.1163
     92  CD        82.4920   58.8750   51.4640 C.2    95  GLU95       0.3649
     93  OE1       82.4620   60.1110   51.6900 O.co2  95  GLU95      -0.2457
     94  OE2       81.5300   58.2340   50.9810 O.co2  95  GLU95      -0.2457
     95  N         90.3960   59.0840   56.1480 N.3    97  ARG97      -0.1245
     96  CA        91.8200   58.7660   56.0600 C.3    97  ARG97       0.1563
     97  C         92.5790   59.4100   57.2070 C.2    97  ARG97       0.2260
     98  O         92.1580   60.4180   57.7430 O.2    97  ARG97      -0.2867
     99  CB        92.4040   59.2420   54.7360 C.3    97  ARG97       0.0307
    100  CG        91.8390   58.5160   53.5260 C.3    97  ARG97       0.0489
    101  CD        92.7060   58.7040   52.2950 C.3    97  ARG97       0.2205
    102  NE        92.1860   57.9530   51.1520 N.pl3  97  ARG97      -0.0865
    103  CZ        92.4440   56.6680   50.9140 C.cat  97  ARG97       0.5346
    104  NH1       93.3160   56.0060   51.6680 N.pl3  97  ARG97       0.1354
    105  NH2       91.8620   56.0530   49.8870 N.pl3  97  ARG97       0.1354
    106  N        104.3830   51.4110   49.6590 N.3   125  LEU125     -0.1245
    107  CA       102.9570   51.2060   49.8670 C.3   125  LEU125      0.1561
    108  C        102.6340   49.7730   50.2810 C.2   125  LEU125      0.2260
    109  O        101.7950   49.5630   51.1630 O.2   125  LEU125     -0.2867
    110  CB       102.1800   51.5500   48.5940 C.3   125  LEU125      0.0270
    111  CG       100.7750   52.1560   48.6650 C.3   125  LEU125      0.0019
    112  CD1       99.9190   51.4310   47.6760 C.3   125  LEU125      0.0001
    113  CD2      100.1570   52.0880   50.0410 C.3   125  LEU125      0.0001
    114  N        103.1300   49.1040   54.0550 N.3   128  ILE128     -0.1231
    115  CA       102.0920   49.7420   54.8550 C.3   128  ILE128      0.1692
    116  C        100.7670   48.9620   54.8250 C.2   128  ILE128      0.2592
    117  O        100.1590   48.6900   55.8610 O.2   128  ILE128     -0.2718
    118  CB       101.8850   51.1850   54.3700 C.3   128  ILE128      0.0266
    119  CG1      103.0750   52.0350   54.8300 C.3   128  ILE128      0.0019
    120  CG2      100.5910   51.7630   54.9200 C.3   128  ILE128      0.0020
    121  CD1      103.2030   53.3290   54.1010 C.3   128  ILE128      0.0001
    122  N        100.3710   48.5520   53.6270 N.am  129  CYS129     -0.1970
    123  CA        99.1860   47.7450   53.4150 C.3   129  CYS129      0.1712
    124  C         99.2220   46.4290   54.1790 C.2   129  CYS129      0.2296
    125  O         98.2310   46.0510   54.7870 O.2   129  CYS129     -0.2864
    126  CB        99.0350   47.4550   51.9290 C.3   129  CYS129      0.0983
    127  SG        97.4090   46.8510   51.4880 S.3   129  CYS129     -0.0798
    128  N         98.7560   47.1870   57.8880 N.3   132  HIS132     -0.1226
    129  CA        97.3460   47.5530   58.0850 C.3   132  HIS132      0.1752
    130  C         96.4380   46.2900   58.0930 C.2   132  HIS132      0.2595
    131  O         95.5760   46.1390   58.9660 O.2   132  HIS132     -0.2718
    132  CB        96.9060   48.5500   56.9750 C.3   132  HIS132      0.0759
    133  CG        95.4370   48.8880   56.9790 C.ar  132  HIS132      0.0818
    134  ND1       94.9630   50.1590   57.2330 N.ar  132  HIS132     -0.2268
    135  CD2       94.3420   48.1330   56.7150 C.ar  132  HIS132      0.1154
    136  CE1       93.6460   50.1680   57.1450 C.ar  132  HIS132      0.1986
    137  NE2       93.2440   48.9500   56.8320 N.ar  132  HIS132     -0.2212
    138  N         96.6400   45.3890   57.1310 N.am  133  GLU133     -0.1979
    139  CA        95.7560   44.2370   56.9980 C.3   133  GLU133      0.1602
    140  C         96.0240   43.1900   58.0820 C.2   133  GLU133      0.2287
    141  O         95.0810   42.6400   58.6540 O.2   133  GLU133     -0.2864
    142  CB        95.8800   43.6180   55.6020 C.3   133  GLU133      0.0415
    143  CG        95.4170   44.5190   54.4310 C.3   133  GLU133      0.1163
    144  CD        94.0030   45.0720   54.6060 C.2   133  GLU133      0.3649
    145  OE1       93.1870   44.4250   55.2770 O.co2 133  GLU133     -0.2457
    146  OE2       93.7270   46.1890   54.1250 O.co2 133  GLU133     -0.2457
@<TRIPOS>BOND
     1    18    16   ar
     2    16    17   ar
     3    16    15    1
     4    15    14    1
     5    14    11    1
     6    11    10    1
     7    11    12    1
     8    10     3   am
     9     1     2    1
    10    12    13    2
    11    12    19   am
    12    22    21    2
    13     3     2    1
    14     3     4    2
    15    29    27    1
    16     2     5    1
    17    19    20    1
    18     9     7   ar
    19    21    20    1
    20    21    23   am
    21    27    24    1
    22    27    28    1
    23   112   111    1
    24    24    23    1
    25    24    25    1
    26     7     8   ar
    27     7     6    1
    28     5     6    1
    29    26    25    2
    30   110   111    1
    31   110   107    1
    32   111   113    1
    33    25    31   am
    34    30    28    1
    35   106   107    1
    36    31    32    1
    37   107   108    1
    38   105   103    1
    39   108   109    2
    40    78    76    1
    41    77    76    1
    42    32    33    1
    43   103   102    2
    44   103   104    1
    45    94    92   ar
    46   102   101    1
    47    33    34    2
    48    76    75    1
    49    92    93   ar
    50    92    91    1
    51   127   126    1
    52    91    90    1
    53   126   123    1
    54   101   100    1
    55    42    40    1
    56    40    39    1
    57    75    72    1
    58    90    87    1
    59    87    86    1
    60    87    88    1
    61    46    45    2
    62   123   122    1
    63   123   124    1
    64    72    71    1
    65    72    73    1
    66   100    99    1
    67    41    39    1
    68   122   116   am
    69    86    81   am
    70    39    36    1
    71    50    49   ar
    72    71    67   am
    73   114   115    1
    74   121   119    1
    75    89    88    2
    76   146   144   ar
    77   124   125    2
    78    83    80    1
    79    83    84    1
    80    62    61    1
    81    62    63    1
    82    61    54   am
    83   118   119    1
    84   118   115    1
    85   118   120    1
    86   143   144    1
    87   143   142    1
    88    74    73    2
    89    47    44    1
    90    47    48    1
    91    67    68    2
    92    67    66    1
    93    80    81    1
    94    80    79    1
    95    81    82    2
    96    45    44    1
    97    45    52   am
    98   144   145   ar
    99    65    63   am
   100    65    66    1
   101    63    64    2
   102    43    44    1
   103    43    37   am
   104    99    96    1
   105   116   115    1
   106   116   117    2
   107    36    37    1
   108    36    35    1
   109    49    48    1
   110    49    51   ar
   111    66    69    1
   112    54    53    1
   113    54    55    2
   114    53    52    1
   115    53    56    1
   116    37    38    2
   117    84    85    1
   118   142   139    1
   119    79    85    1
   120    96    95    1
   121    96    97    1
   122    56    57    1
   123    57    58    1
   124    69    70    1
   125   135   137   ar
   126   135   133   ar
   127   137   136   ar
   128   132   133    1
   129   132   129    1
   130   133   134   ar
   131   139   138    1
   132   139   140    1
   133   138   130   am
   134   136   134   ar
   135    97    98    2
   136    58    59   ar
   137    58    60   ar
   138   128   129    1
   139   140   141    2
   140   129   130    1
   141   130   131    2
