@<TRIPOS>MOLECULE
tmp/1bs6B00.pdb
 131 124 0 0 0
SMALL
GASTEIGER

@<TRIPOS>ATOM
      1  N         87.4840   48.9450   42.6190 N.3    42  GLU42      -0.1231
      2  CA        88.6990   49.6730   42.2860 C.3    42  GLU42       0.1699
      3  C         89.6070   49.9170   43.4940 C.2    42  GLU42       0.2593
      4  O         90.0180   51.0490   43.7620 O.2    42  GLU42      -0.2718
      5  CB        88.3550   50.9930   41.6020 C.3    42  GLU42       0.0402
      6  CG        87.4930   50.8130   40.3620 C.3    42  GLU42       0.1161
      7  CD        87.2970   52.1070   39.5850 C.2    42  GLU42       0.3649
      8  OE1       86.8470   53.1130   40.1910 O.co2  42  GLU42      -0.2457
      9  OE2       87.6130   52.1250   38.3650 O.co2  42  GLU42      -0.2457
     10  N         89.9120   48.8510   44.2310 N.am   43  GLY43      -0.1942
     11  CA        90.9320   48.9470   45.2570 C.3    43  GLY43       0.2014
     12  C         92.2480   48.3630   44.7580 C.2    43  GLY43       0.2639
     13  O         92.3010   47.7680   43.6800 O.2    43  GLY43      -0.2714
     14  N         93.3170   48.5220   45.5350 N.am   44  ILE44      -0.1963
     15  CA        94.5900   47.8840   45.1850 C.3    44  ILE44       0.1727
     16  C         94.9760   46.7950   46.1950 C.2    44  ILE44       0.2616
     17  O         95.9070   46.0130   45.9650 O.2    44  ILE44      -0.2715
     18  CB        95.7180   48.9350   45.0540 C.3    44  ILE44       0.0290
     19  CG1       95.9460   49.6290   46.3940 C.3    44  ILE44       0.0022
     20  CG2       95.3640   49.9550   43.9740 C.3    44  ILE44       0.0023
     21  CD1       97.0570   50.6530   46.3340 C.3    44  ILE44       0.0001
     22  N         94.1580   46.6770   47.2370 N.am   45  GLY45      -0.1955
     23  CA        94.2380   45.5560   48.1680 C.3    45  GLY45       0.1869
     24  C         92.9130   45.2530   48.8750 C.2    45  GLY45       0.2309
     25  O         92.0300   46.1060   48.9290 O.2    45  GLY45      -0.2863
     26  N         87.4000   42.1560   55.4460 N.3    50  GLN50      -0.1245
     27  CA        86.6320   43.2840   54.9450 C.3    50  GLN50       0.1566
     28  C         85.3700   42.8310   54.2260 C.2    50  GLN50       0.2260
     29  O         84.4600   43.6400   53.9940 O.2    50  GLN50      -0.2867
     30  CB        87.4670   44.1490   54.0000 C.3    50  GLN50       0.0367
     31  CG        88.2800   45.2160   54.6840 C.3    50  GLN50       0.0905
     32  CD        89.1700   45.9400   53.7150 C.2    50  GLN50       0.2608
     33  OE1       90.1030   45.3550   53.1710 O.2    50  GLN50      -0.2717
     34  NE2       88.8360   47.1860   53.4120 N.am   50  GLN50      -0.0878
     35  N        102.4070   57.3170   52.6100 N.3    86  ILE86      -0.1245
     36  CA       101.6480   58.0070   51.5730 C.3    86  ILE86       0.1561
     37  C        100.2430   58.2800   52.1060 C.2    86  ILE86       0.2260
     38  O         99.9220   57.8650   53.1970 O.2    86  ILE86      -0.2867
     39  CB       101.5680   57.1800   50.2720 C.3    86  ILE86       0.0252
     40  CG1      101.3060   55.7220   50.5960 C.3    86  ILE86       0.0019
     41  CG2      102.8280   57.3200   49.4880 C.3    86  ILE86       0.0019
     42  CD1      100.8210   54.9330   49.4070 C.3    86  ILE86       0.0001
     43  N         96.8650   57.0820   52.3160 N.3    88  GLU88      -0.1231
     44  CA        96.2400   55.7990   52.0340 C.3    88  GLU88       0.1699
     45  C         94.7370   55.9590   51.9970 C.2    88  GLU88       0.2593
     46  O         94.1970   56.8320   52.6460 O.2    88  GLU88      -0.2718
     47  CB        96.6080   54.7690   53.1000 C.3    88  GLU88       0.0402
     48  CG        98.0690   54.6770   53.4270 C.3    88  GLU88       0.1161
     49  CD        98.3940   53.4730   54.2570 C.2    88  GLU88       0.3649
     50  OE1       97.5170   52.6560   54.5710 O.co2  88  GLU88      -0.2457
     51  OE2       99.5320   53.3560   54.6720 O.co2  88  GLU88      -0.2457
     52  N         94.0730   55.1270   51.2060 N.am   89  GLY89      -0.1942
     53  CA        92.6230   55.0240   51.2690 C.3    89  GLY89       0.2014
     54  C         92.2550   53.5800   51.5370 C.2    89  GLY89       0.2639
     55  O         93.1420   52.7300   51.6350 O.2    89  GLY89      -0.2714
     56  N         90.9690   53.2660   51.5370 N.am   90  CYS90      -0.1953
     57  CA        90.5170   51.9340   51.9550 C.3    90  CYS90       0.1843
     58  C         89.0810   51.7570   51.4770 C.2    90  CYS90       0.2625
     59  O         88.3030   52.6900   51.5690 O.2    90  CYS90      -0.2714
     60  CB        90.5560   51.8480   53.4870 C.3    90  CYS90       0.0997
     61  SG        90.2320   50.2460   54.2150 S.3    90  CYS90      -0.0797
     62  N         88.7270   50.5800   50.9720 N.am   91  LEU91      -0.1977
     63  CA        87.3410   50.3050   50.5770 C.3    91  LEU91       0.1596
     64  C         86.3090   50.3440   51.7430 C.2    91  LEU91       0.2287
     65  O         85.1060   50.6000   51.5250 O.2    91  LEU91      -0.2864
     66  CB        87.2850   48.9630   49.8370 C.3    91  LEU91       0.0297
     67  CG        88.1220   48.8930   48.5400 C.3    91  LEU91       0.0022
     68  CD1       87.8100   47.6220   47.7580 C.3    91  LEU91       0.0001
     69  CD2       87.8820   50.1350   47.6770 C.3    91  LEU91       0.0001
     70  N         91.0420   59.8500   52.8150 N.3    97  ARG97      -0.1245
     71  CA        92.4480   59.5060   52.6840 C.3    97  ARG97       0.1563
     72  C         93.3110   60.2390   53.7240 C.2    97  ARG97       0.2260
     73  O         93.0910   61.4040   54.0150 O.2    97  ARG97      -0.2867
     74  CB        92.9310   59.8220   51.2630 C.3    97  ARG97       0.0307
     75  CG        92.2110   59.0480   50.2010 C.3    97  ARG97       0.0489
     76  CD        92.9660   59.0650   48.9020 C.3    97  ARG97       0.2205
     77  NE        92.1830   58.4160   47.8480 N.pl3  97  ARG97      -0.0865
     78  CZ        92.5380   57.2930   47.2150 C.cat  97  ARG97       0.5346
     79  NH1       93.7250   56.7150   47.4550 N.pl3  97  ARG97       0.1354
     80  NH2       91.7120   56.7590   46.3110 N.pl3  97  ARG97       0.1354
     81  N        105.1840   51.1860   47.0930 N.3   125  LEU125     -0.1245
     82  CA       103.7560   51.0120   47.2620 C.3   125  LEU125      0.1561
     83  C        103.4350   49.5990   47.7470 C.2   125  LEU125      0.2260
     84  O        102.5150   49.4150   48.5370 O.2   125  LEU125     -0.2867
     85  CB       103.0630   51.2490   45.9250 C.3   125  LEU125      0.0270
     86  CG       101.7130   51.9370   45.7940 C.3   125  LEU125      0.0019
     87  CD1      100.9740   51.2860   44.6470 C.3   125  LEU125      0.0001
     88  CD2      100.9140   51.8710   47.0950 C.3   125  LEU125      0.0001
     89  N        103.8710   49.2220   51.5560 N.3   128  ILE128     -0.1231
     90  CA       102.8120   49.9490   52.2600 C.3   128  ILE128      0.1692
     91  C        101.4780   49.2020   52.1980 C.2   128  ILE128      0.2592
     92  O        100.7770   49.0780   53.2060 O.2   128  ILE128     -0.2718
     93  CB       102.6310   51.3680   51.6700 C.3   128  ILE128      0.0266
     94  CG1      103.8720   52.2160   51.9950 C.3   128  ILE128      0.0019
     95  CG2      101.3360   52.0120   52.1880 C.3   128  ILE128      0.0020
     96  CD1      103.9470   53.4980   51.2160 C.3   128  ILE128      0.0001
     97  N        101.2280   48.5520   51.0710 N.am  129  CYS129     -0.1970
     98  CA        99.9450   47.9180   50.8610 C.3   129  CYS129      0.1712
     99  C         99.8870   46.6130   51.6490 C.2   129  CYS129      0.2296
    100  O         98.9310   46.3910   52.4030 O.2   129  CYS129     -0.2864
    101  CB        99.6870   47.6980   49.3660 C.3   129  CYS129      0.0983
    102  SG        98.1040   46.9320   49.0590 S.3   129  CYS129     -0.0798
    103  N         99.2980   47.6680   55.3180 N.3   132  HIS132     -0.1226
    104  CA        97.8970   48.0690   55.4650 C.3   132  HIS132      0.1752
    105  C         96.9510   46.8620   55.5460 C.2   132  HIS132      0.2595
    106  O         96.1010   46.8030   56.4490 O.2   132  HIS132     -0.2718
    107  CB        97.5310   48.9810   54.2890 C.3   132  HIS132      0.0759
    108  CG        96.0750   49.3200   54.1850 C.ar  132  HIS132      0.0818
    109  ND1       95.6260   50.6240   54.2100 N.ar  132  HIS132     -0.2268
    110  CD2       95.0130   48.5660   53.8170 C.ar  132  HIS132      0.1154
    111  CE1       94.3570   50.6600   53.8590 C.ar  132  HIS132      0.1986
    112  NE2       93.9640   49.4240   53.6050 N.ar  132  HIS132     -0.2212
    113  N         97.1590   45.8660   54.6780 N.am  133  GLU133     -0.1979
    114  CA        96.2880   44.7020   54.6350 C.3   133  GLU133      0.1602
    115  C         96.4700   43.7500   55.8290 C.2   133  GLU133      0.2287
    116  O         95.4790   43.2420   56.3930 O.2   133  GLU133     -0.2864
    117  CB        96.4660   43.9140   53.3360 C.3   133  GLU133      0.0415
    118  CG        96.0980   44.6350   52.0630 C.3   133  GLU133      0.1163
    119  CD        94.7750   45.3510   52.1460 C.2   133  GLU133      0.3649
    120  OE1       93.8130   44.7880   52.6920 O.co2 133  GLU133     -0.2457
    121  OE2       94.6660   46.4610   51.6110 O.co2 133  GLU133     -0.2457
    122  N         94.4250   44.8140   58.6340 N.3   136  HIS136     -0.1241
    123  CA        93.0140   44.3360   58.6260 C.3   136  HIS136      0.1621
    124  C         92.8210   43.0200   59.3790 C.2   136  HIS136      0.2264
    125  O         91.8160   42.8220   60.0700 O.2   136  HIS136     -0.2867
    126  CB        92.4820   44.1210   57.1920 C.3   136  HIS136      0.0745
    127  CG        92.1130   45.3860   56.5000 C.ar  136  HIS136      0.0817
    128  ND1       91.2230   46.2890   57.0270 N.ar  136  HIS136     -0.2268
    129  CD2       92.6370   45.9730   55.3910 C.ar  136  HIS136      0.1154
    130  CE1       91.2020   47.3760   56.2890 C.ar  136  HIS136      0.1986
    131  NE2       92.0520   47.2180   55.2850 N.ar  136  HIS136     -0.2212
@<TRIPOS>BOND
     1     9     7   ar
     2     7     8   ar
     3     7     6    1
     4     6     5    1
     5     5     2    1
     6     2     1    1
     7     2     3    1
     8     3     4    2
     9     3    10   am
    10    13    12    2
    11    20    18    1
    12    10    11    1
    13    87    86    1
    14    12    11    1
    15    12    14   am
    16    18    15    1
    17    18    19    1
    18    15    14    1
    19    15    16    1
    20    86    85    1
    21    86    88    1
    22    85    82    1
    23    17    16    2
    24    16    22   am
    25    80    78    1
    26    21    19    1
    27    81    82    1
    28    78    79    1
    29    78    77    2
    30    22    23    1
    31    82    83    1
    32    69    67    1
    33    83    84    2
    34    68    67    1
    35    77    76    1
    36    23    24    1
    37    67    66    1
    38    24    25    2
    39    76    75    1
    40   102   101    1
    41   101    98    1
    42    42    40    1
    43    41    39    1
    44    66    63    1
    45    75    74    1
    46    39    40    1
    47    39    36    1
    48    63    62    1
    49    63    64    1
    50    98    97    1
    51    98    99    1
    52    62    58   am
    53    97    91   am
    54    52    53    1
    55    52    45   am
    56    96    94    1
    57    74    71    1
    58    53    54    1
    59    58    59    2
    60    58    57    1
    61    65    64    2
    62    56    54   am
    63    56    57    1
    64    54    55    2
    65    89    90    1
    66    36    37    1
    67    36    35    1
    68   121   119   ar
    69    99   100    2
    70    93    94    1
    71    93    95    1
    72    93    90    1
    73    57    60    1
    74    45    44    1
    75    45    46    2
    76    44    43    1
    77    44    47    1
    78   118   119    1
    79   118   117    1
    80    37    38    2
    81   119   120   ar
    82    91    90    1
    83    91    92    2
    84    71    70    1
    85    71    72    1
    86    47    48    1
    87    33    32    2
    88   117   114    1
    89    34    32   am
    90    48    49    1
    91    60    61    1
    92   112   110   ar
    93   112   111   ar
    94    32    31    1
    95    72    73    2
    96   110   108   ar
    97   111   109   ar
    98    29    28    2
    99    30    31    1
   100    30    27    1
   101   108   109   ar
   102   108   107    1
   103    28    27    1
   104    49    50   ar
   105    49    51   ar
   106   107   104    1
   107   114   113    1
   108   114   115    1
   109   113   105   am
   110    27    26    1
   111   131   129   ar
   112   131   130   ar
   113   103   104    1
   114   129   127   ar
   115   104   105    1
   116   105   106    2
   117   115   116    2
   118   130   128   ar
   119   127   128   ar
   120   127   126    1
   121   126   123    1
   122   123   122    1
   123   123   124    1
   124   124   125    2
