@<TRIPOS>MOLECULE
tmp/1bsjA00.pdb
 158 151 0 0 0
SMALL
GASTEIGER

@<TRIPOS>ATOM
      1  N         33.0530   59.7680   76.6390 N.3    41  GLU41      -0.1231
      2  CA        33.1210   58.3620   77.0200 C.3    41  GLU41       0.1699
      3  C         34.1930   58.1030   78.0700 C.2    41  GLU41       0.2592
      4  O         34.4140   56.9730   78.4470 O.2    41  GLU41      -0.2718
      5  CB        33.4350   57.5100   75.8080 C.3    41  GLU41       0.0402
      6  CG        32.6070   57.8240   74.5820 C.3    41  GLU41       0.1161
      7  CD        31.2860   57.0940   74.5560 C.2    41  GLU41       0.3649
      8  OE1       30.4290   57.4330   75.3930 O.co2  41  GLU41      -0.2457
      9  OE2       31.1040   56.1900   73.7040 O.co2  41  GLU41      -0.2457
     10  N         34.8970   59.1380   78.4990 N.am   42  GLU42      -0.1966
     11  CA        35.9450   58.9970   79.5080 C.3    42  GLU42       0.1733
     12  C         37.1520   58.1650   79.0420 C.2    42  GLU42       0.2617
     13  O         37.7900   57.4600   79.8400 O.2    42  GLU42      -0.2715
     14  CB        35.3780   58.4350   80.8200 C.3    42  GLU42       0.0429
     15  CG        34.3070   59.3140   81.4510 C.3    42  GLU42       0.1163
     16  CD        33.9520   58.8790   82.8620 C.2    42  GLU42       0.3649
     17  OE1       33.1210   57.9620   83.0070 O.co2  42  GLU42      -0.2457
     18  OE2       34.5030   59.4520   83.8320 O.co2  42  GLU42      -0.2457
     19  N         37.4580   58.2540   77.7480 N.am   43  GLY43      -0.1940
     20  CA        38.5790   57.5170   77.1950 C.3    43  GLY43       0.2014
     21  C         39.8100   58.3920   77.2290 C.2    43  GLY43       0.2639
     22  O         39.6710   59.5980   77.3890 O.2    43  GLY43      -0.2714
     23  N         40.9980   57.7940   77.1140 N.am   44  ILE44      -0.1963
     24  CA        42.2330   58.5730   77.1320 C.3    44  ILE44       0.1727
     25  C         42.8270   58.7540   75.7390 C.2    44  ILE44       0.2616
     26  O         43.8660   59.3760   75.5830 O.2    44  ILE44      -0.2715
     27  CB        43.2910   57.9760   78.0980 C.3    44  ILE44       0.0290
     28  CG1       43.8230   56.6400   77.5840 C.3    44  ILE44       0.0022
     29  CG2       42.6820   57.7590   79.4730 C.3    44  ILE44       0.0023
     30  CD1       44.7920   55.9200   78.5570 C.3    44  ILE44       0.0001
     31  N         42.1490   58.2250   74.7310 N.am   45  GLY45      -0.1955
     32  CA        42.5920   58.3250   73.3600 C.3    45  GLY45       0.1869
     33  C         41.4630   57.8890   72.4420 C.2    45  GLY45       0.2309
     34  O         40.4990   57.2930   72.9110 O.2    45  GLY45      -0.2863
     35  N         37.5630   54.2970   64.7670 N.3    50  GLN50      -0.1245
     36  CA        36.5520   53.8820   65.7360 C.3    50  GLN50       0.1566
     37  C         35.2310   54.6040   65.5250 C.2    50  GLN50       0.2260
     38  O         34.1800   54.1130   65.9410 O.2    50  GLN50      -0.2867
     39  CB        37.0330   54.1490   67.1610 C.3    50  GLN50       0.0367
     40  CG        38.2290   53.3440   67.5940 C.3    50  GLN50       0.0905
     41  CD        38.7000   53.7410   68.9770 C.2    50  GLN50       0.2608
     42  OE1       39.6030   54.5560   69.1160 O.2    50  GLN50      -0.2717
     43  NE2       38.0780   53.1930   70.0020 N.am   50  GLN50      -0.0878
     44  N         49.9560   47.0770   80.3410 N.3    86  ILE86      -0.1231
     45  CA        48.9190   47.4400   81.2910 C.3    86  ILE86       0.1692
     46  C         47.6080   46.7620   80.8690 C.2    86  ILE86       0.2592
     47  O         47.5240   46.1800   79.7780 O.2    86  ILE86      -0.2718
     48  CB        48.6670   48.9730   81.3410 C.3    86  ILE86       0.0266
     49  CG1       48.0840   49.4670   80.0240 C.3    86  ILE86       0.0019
     50  CG2       49.9380   49.7340   81.6320 C.3    86  ILE86       0.0020
     51  CD1       47.5910   50.8760   80.1180 C.3    86  ILE86       0.0001
     52  N         46.6130   46.7850   81.7540 N.am   87  GLU87      -0.1966
     53  CA        45.3160   46.2030   81.4520 C.3    87  GLU87       0.1733
     54  C         44.5800   47.1910   80.5740 C.2    87  GLU87       0.2616
     55  O         43.8350   48.0460   81.0640 O.2    87  GLU87      -0.2715
     56  CB        44.5100   45.9930   82.7250 C.3    87  GLU87       0.0429
     57  CG        45.2840   45.3470   83.8330 C.3    87  GLU87       0.1163
     58  CD        44.9440   43.8930   83.9980 C.2    87  GLU87       0.3649
     59  OE1       45.1290   43.1400   83.0210 O.co2  87  GLU87      -0.2457
     60  OE2       44.4900   43.5090   85.0980 O.co2  87  GLU87      -0.2457
     61  N         44.7760   47.0710   79.2720 N.am   88  GLU88      -0.1963
     62  CA        44.1340   47.9750   78.3300 C.3    88  GLU88       0.1733
     63  C         42.6710   47.6740   78.1440 C.2    88  GLU88       0.2617
     64  O         42.2200   46.5410   78.3400 O.2    88  GLU88      -0.2715
     65  CB        44.8410   47.9290   76.9770 C.3    88  GLU88       0.0429
     66  CG        46.2430   48.4410   77.0310 C.3    88  GLU88       0.1163
     67  CD        46.9380   48.3880   75.7030 C.2    88  GLU88       0.3649
     68  OE1       46.2730   48.6300   74.6720 O.co2  88  GLU88      -0.2457
     69  OE2       48.1630   48.1260   75.6910 O.co2  88  GLU88      -0.2457
     70  N         41.9360   48.7050   77.7560 N.am   89  GLY89      -0.1940
     71  CA        40.5190   48.5880   77.5000 C.3    89  GLY89       0.2014
     72  C         40.3290   49.3360   76.2100 C.2    89  GLY89       0.2639
     73  O         41.2870   49.8820   75.6710 O.2    89  GLY89      -0.2714
     74  N         39.1240   49.3260   75.6700 N.am   90  CYS90      -0.1953
     75  CA        38.8720   49.9900   74.4130 C.3    90  CYS90       0.1843
     76  C         37.3610   50.2760   74.3280 C.2    90  CYS90       0.2625
     77  O         36.5540   49.4650   74.7480 O.2    90  CYS90      -0.2714
     78  CB        39.3380   49.0490   73.3000 C.3    90  CYS90       0.0997
     79  SG        39.1630   49.7770   71.6510 S.3    90  CYS90      -0.0797
     80  N         36.9810   51.4230   73.7920 N.am   91  LEU91      -0.1977
     81  CA        35.5740   51.7460   73.6890 C.3    91  LEU91       0.1596
     82  C         34.8740   50.8130   72.6990 C.2    91  LEU91       0.2287
     83  O         33.6660   50.5560   72.8280 O.2    91  LEU91      -0.2864
     84  CB        35.3980   53.2170   73.3010 C.3    91  LEU91       0.0297
     85  CG        35.8050   54.1910   74.4270 C.3    91  LEU91       0.0022
     86  CD1       35.9370   55.6050   73.8890 C.3    91  LEU91       0.0001
     87  CD2       34.7980   54.1380   75.5910 C.3    91  LEU91       0.0001
     88  N         33.7900   46.5460   78.1060 N.3    95  GLU95      -0.1245
     89  CA        34.0080   45.7730   79.3080 C.3    95  GLU95       0.1567
     90  C         35.0900   44.7160   79.3460 C.2    95  GLU95       0.2260
     91  O         35.2060   43.9890   80.3320 O.2    95  GLU95      -0.2867
     92  CB        32.6750   45.2400   79.8210 C.3    95  GLU95       0.0388
     93  CG        31.8260   46.3620   80.4140 C.3    95  GLU95       0.1160
     94  CD        30.3230   46.1360   80.2940 C.2    95  GLU95       0.3649
     95  OE1       29.8320   45.0650   80.7300 O.co2  95  GLU95      -0.2457
     96  OE2       29.6290   47.0510   79.7740 O.co2  95  GLU95      -0.2457
     97  N         39.2310   43.7380   79.3260 N.3    97  ARG97      -0.1245
     98  CA        40.5290   44.3220   79.6030 C.3    97  ARG97       0.1563
     99  C         41.5620   43.2210   79.5520 C.2    97  ARG97       0.2260
    100  O         41.3360   42.1360   80.0650 O.2    97  ARG97      -0.2867
    101  CB        40.5600   44.9430   81.0050 C.3    97  ARG97       0.0307
    102  CG        39.5500   46.0390   81.2360 C.3    97  ARG97       0.0489
    103  CD        40.2060   47.3810   81.3950 C.3    97  ARG97       0.2205
    104  NE        39.2090   48.4440   81.4690 N.pl3  97  ARG97      -0.0865
    105  CZ        39.3750   49.5840   82.1430 C.cat  97  ARG97       0.5346
    106  NH1       40.5120   49.8160   82.8000 N.pl3  97  ARG97       0.1354
    107  NH2       38.3810   50.4810   82.1880 N.pl3  97  ARG97       0.1354
    108  N         52.4940   55.8000   80.1610 N.3   125  LEU125     -0.1245
    109  CA        51.1580   55.6270   79.6280 C.3   125  LEU125      0.1561
    110  C         50.9680   56.2520   78.2460 C.2   125  LEU125      0.2260
    111  O         50.3340   55.6540   77.3730 O.2   125  LEU125     -0.2867
    112  CB        50.1400   56.2110   80.5960 C.3   125  LEU125      0.0270
    113  CG        48.6750   55.9090   80.3050 C.3   125  LEU125      0.0019
    114  CD1       48.3970   54.4610   80.5970 C.3   125  LEU125      0.0001
    115  CD2       47.7760   56.8050   81.1600 C.3   125  LEU125      0.0001
    116  N         52.1810   53.9730   75.5650 N.3   128  ILE128     -0.1231
    117  CA        51.2710   52.8570   75.3650 C.3   128  ILE128      0.1692
    118  C         50.0430   53.2740   74.5600 C.2   128  ILE128      0.2592
    119  O         49.6870   52.6220   73.5690 O.2   128  ILE128     -0.2718
    120  CB        50.8200   52.2590   76.7130 C.3   128  ILE128      0.0266
    121  CG1       52.0350   51.7370   77.4740 C.3   128  ILE128      0.0019
    122  CG2       49.8150   51.1420   76.4840 C.3   128  ILE128      0.0020
    123  CD1       51.6950   51.0560   78.7410 C.3   128  ILE128      0.0001
    124  N         49.4260   54.3780   74.9740 N.am  129  CYS129     -0.1970
    125  CA        48.2400   54.9090   74.3200 C.3   129  CYS129      0.1712
    126  C         48.4980   55.0990   72.8360 C.2   129  CYS129      0.2296
    127  O         47.7310   54.6240   72.0150 O.2   129  CYS129     -0.2864
    128  CB        47.8540   56.2210   74.9720 C.3   129  CYS129      0.0983
    129  SG        46.2690   56.8540   74.4800 S.3   129  CYS129     -0.0798
    130  N         48.4690   51.9200   70.9900 N.3   132  HIS132     -0.1226
    131  CA        47.1020   51.4160   70.9220 C.3   132  HIS132      0.1752
    132  C         46.3460   52.1270   69.8130 C.2   132  HIS132      0.2595
    133  O         45.7350   51.4910   68.9640 O.2   132  HIS132     -0.2718
    134  CB        46.3980   51.6280   72.2590 C.3   132  HIS132      0.0759
    135  CG        44.9790   51.1340   72.2970 C.ar  132  HIS132      0.0818
    136  ND1       44.5300   50.1350   73.1240 N.ar  132  HIS132     -0.2268
    137  CD2       43.8740   51.6050   71.6610 C.ar  132  HIS132      0.1154
    138  CE1       43.2010   50.0440   72.9980 C.ar  132  HIS132      0.1986
    139  NE2       42.7810   50.9180   72.1180 N.ar  132  HIS132     -0.2212
    140  N         46.3650   53.4530   69.8580 N.am  133  GLU133     -0.1979
    141  CA        45.6730   54.2830   68.8790 C.3   133  GLU133      0.1602
    142  C         46.1640   54.1110   67.4580 C.2   133  GLU133      0.2287
    143  O         45.3730   54.1780   66.5260 O.2   133  GLU133     -0.2864
    144  CB        45.7460   55.7470   69.2780 C.3   133  GLU133      0.0415
    145  CG        45.0770   56.0380   70.6030 C.3   133  GLU133      0.1163
    146  CD        43.6960   55.4260   70.7160 C.2   133  GLU133      0.3649
    147  OE1       42.9450   55.4050   69.7240 O.co2 133  GLU133     -0.2457
    148  OE2       43.3580   54.9750   71.8200 O.co2 133  GLU133     -0.2457
    149  N         44.8610   50.9820   65.8660 N.3   136  HIS136     -0.1241
    150  CA        43.5050   51.2280   65.4070 C.3   136  HIS136      0.1621
    151  C         43.4750   51.7350   63.9660 C.2   136  HIS136      0.2264
    152  O         42.5220   51.4780   63.2500 O.2   136  HIS136     -0.2867
    153  CB        42.8200   52.2890   66.2780 C.3   136  HIS136      0.0745
    154  CG        42.0090   51.7210   67.3900 C.ar  136  HIS136      0.0817
    155  ND1       41.1000   50.7030   67.2370 N.ar  136  HIS136     -0.2268
    156  CD2       41.9980   52.0340   68.7120 C.ar  136  HIS136      0.1154
    157  CE1       40.6020   50.4230   68.4390 C.ar  136  HIS136      0.1986
    158  NE2       41.1230   51.2090   69.3490 N.ar  136  HIS136     -0.2212
@<TRIPOS>BOND
     1   152   151    2
     2   151   150    1
     3    35    36    1
     4   150   149    1
     5   150   153    1
     6    37    36    1
     7    37    38    2
     8    36    39    1
     9   153   154    1
    10   143   142    2
    11    39    40    1
    12   155   154   ar
    13   155   157   ar
    14   154   156   ar
    15   142   141    1
    16    40    41    1
    17   157   158   ar
    18   156   158   ar
    19   141   144    1
    20   141   140    1
    21   133   132    2
    22    41    42    2
    23    41    43   am
    24   144   145    1
    25   147   146   ar
    26   132   140   am
    27   132   131    1
    28   145   146    1
    29   146   148   ar
    30   131   130    1
    31   131   134    1
    32    79    78    1
    33   137   139   ar
    34   137   135   ar
    35   127   126    2
    36   139   138   ar
    37   134   135    1
    38   135   136   ar
    39    33    34    2
    40    33    32    1
    41    82    83    2
    42    82    81    1
    43   126   125    1
    44   138   136   ar
    45    78    75    1
    46    84    81    1
    47    84    85    1
    48    32    31    1
    49   119   118    2
    50    81    80    1
    51     9     7   ar
    52    80    76   am
    53    86    85    1
    54   125   128    1
    55   125   124    1
    56    76    75    1
    57    76    77    2
    58    75    74    1
    59    85    87    1
    60   129   128    1
    61     7     6    1
    62     7     8   ar
    63   118   124   am
    64   118   117    1
    65     6     5    1
    66    68    67   ar
    67    31    25   am
    68   117   116    1
    69   117   120    1
    70    26    25    2
    71    74    72   am
    72    73    72    2
    73    69    67   ar
    74    67    66    1
    75    25    24    1
    76     5     2    1
    77    72    71    1
    78   122   120    1
    79     1     2    1
    80   120   121    1
    81    65    66    1
    82    65    62    1
    83     2     3    1
    84    23    24    1
    85    23    21   am
    86    24    27    1
    87    20    21    1
    88    20    19    1
    89    21    22    2
    90   111   110    2
    91   121   123    1
    92    71    70    1
    93    28    27    1
    94    28    30    1
    95    19    12   am
    96    70    63   am
    97     3     4    2
    98     3    10   am
    99    27    29    1
   100    88    89    1
   101    63    62    1
   102    63    64    2
   103   110   109    1
   104    62    61    1
   105    10    11    1
   106    12    11    1
   107    12    13    2
   108    61    54   am
   109    89    90    1
   110    89    92    1
   111    97    98    1
   112    90    91    2
   113    11    14    1
   114    99    98    1
   115    99   100    2
   116    98   101    1
   117   109   108    1
   118   109   112    1
   119    96    94   ar
   120    47    46    2
   121    92    93    1
   122    49    51    1
   123    49    48    1
   124    94    93    1
   125    94    95   ar
   126   113   112    1
   127   113   114    1
   128   113   115    1
   129    44    45    1
   130    54    55    2
   131    54    53    1
   132    14    15    1
   133    46    45    1
   134    46    52   am
   135   101   102    1
   136   102   103    1
   137    45    48    1
   138    48    50    1
   139   103   104    1
   140    15    16    1
   141    53    52    1
   142    53    56    1
   143   104   105    2
   144   105   107    1
   145   105   106    1
   146    56    57    1
   147    16    17   ar
   148    16    18   ar
   149    59    58   ar
   150    57    58    1
   151    58    60   ar
