@<TRIPOS>MOLECULE
tmp/1bsoA00.pdb
 149 133 0 0 0
SMALL
GASTEIGER

@<TRIPOS>ATOM
      1  N          0.4040    3.6000   46.2440 N.3    38  PRO38      -0.2102
      2  CA         0.4180    3.8760   44.7960 C.3    38  PRO38       0.1504
      3  C          1.6130    4.6080   44.1790 C.2    38  PRO38       0.2575
      4  O          2.1210    4.1910   43.1320 O.2    38  PRO38      -0.2718
      5  CB        -0.8850    4.6530   44.5740 C.3    38  PRO38       0.0282
      6  CG        -1.2360    5.1750   45.9490 C.3    38  PRO38       0.0208
      7  CD        -0.8760    4.0300   46.8290 C.3    38  PRO38       0.0893
      8  N          2.0350    5.7180   44.7780 N.am   39  LEU39      -0.1980
      9  CA         3.1620    6.4780   44.2280 C.3    39  LEU39       0.1596
     10  C          4.4880    6.3290   44.9550 C.2    39  LEU39       0.2287
     11  O          5.3560    7.2050   44.8980 O.2    39  LEU39      -0.2864
     12  CB         2.8140    7.9580   44.0530 C.3    39  LEU39       0.0297
     13  CG         1.9610    8.1940   42.8080 C.3    39  LEU39       0.0022
     14  CD1        0.5010    8.2660   43.1890 C.3    39  LEU39       0.0001
     15  CD2        2.3970    9.4530   42.0940 C.3    39  LEU39       0.0001
     16  N          7.4250    4.8760   44.4890 N.3    41  VAL41      -0.1245
     17  CA         8.2880    4.2690   43.4740 C.3    41  VAL41       0.1561
     18  C          9.7500    4.6610   43.6850 C.2    41  VAL41       0.2260
     19  O         10.0580    5.7800   44.1080 O.2    41  VAL41      -0.2867
     20  CB         7.8390    4.6400   42.0350 C.3    41  VAL41       0.0252
     21  CG1        6.4660    4.0420   41.7510 C.3    41  VAL41       0.0019
     22  CG2        7.8020    6.1500   41.8570 C.3    41  VAL41       0.0019
     23  N         13.3900    5.0220   41.8500 N.3    43  VAL43      -0.1245
     24  CA        14.0520    5.1420   40.5570 C.3    43  VAL43       0.1561
     25  C         15.3660    4.3740   40.5060 C.2    43  VAL43       0.2260
     26  O         16.1710    4.4380   41.4390 O.2    43  VAL43      -0.2867
     27  CB        14.2800    6.6220   40.1970 C.3    43  VAL43       0.0252
     28  CG1       15.1100    6.7390   38.9320 C.3    43  VAL43       0.0019
     29  CG2       12.9400    7.3170   39.9990 C.3    43  VAL43       0.0019
     30  N         17.5690    6.0790   34.3940 N.3    46  LEU46      -0.1245
     31  CA        16.8870    6.9770   33.4660 C.3    46  LEU46       0.1561
     32  C         17.5860    6.7770   32.1180 C.2    46  LEU46       0.2260
     33  O         18.8140    6.8790   32.0220 O.2    46  LEU46      -0.2867
     34  CB        16.9740    8.4380   33.9170 C.3    46  LEU46       0.0270
     35  CG        16.0580    8.8800   35.0630 C.3    46  LEU46       0.0019
     36  CD1       16.2370   10.3670   35.3190 C.3    46  LEU46       0.0001
     37  CD2       14.6120    8.5770   34.7250 C.3    46  LEU46       0.0001
     38  N         11.8700    9.6360   27.2960 N.3    54  LEU54      -0.1245
     39  CA        12.6000    9.2090   28.4820 C.3    54  LEU54       0.1561
     40  C         12.0860    7.8950   29.0700 C.2    54  LEU54       0.2260
     41  O         10.9620    7.8220   29.5600 O.2    54  LEU54      -0.2867
     42  CB        12.5350   10.3200   29.5390 C.3    54  LEU54       0.0270
     43  CG        13.3760   10.1770   30.8030 C.3    54  LEU54       0.0019
     44  CD1       14.7980    9.8560   30.4060 C.3    54  LEU54       0.0001
     45  CD2       13.3080   11.4540   31.6220 C.3    54  LEU54       0.0001
     46  N         11.9960    5.3290   31.8760 N.3    56  ILE56      -0.1245
     47  CA        12.2460    5.3010   33.3070 C.3    56  ILE56       0.1561
     48  C         12.1560    3.8780   33.8280 C.2    56  ILE56       0.2260
     49  O         11.1670    3.1780   33.5880 O.2    56  ILE56      -0.2867
     50  CB        11.1970    6.1340   34.0700 C.3    56  ILE56       0.0252
     51  CG1       11.0240    7.5060   33.4180 C.3    56  ILE56       0.0019
     52  CG2       11.6140    6.2900   35.5260 C.3    56  ILE56       0.0019
     53  CD1        9.6400    8.0790   33.5870 C.3    56  ILE56       0.0001
     54  N         12.0260    1.8020   37.1940 N.3    58  LEU58      -0.1245
     55  CA        11.7900    1.9460   38.6240 C.3    58  LEU58       0.1561
     56  C         11.3190    0.6560   39.2850 C.2    58  LEU58       0.2260
     57  O         11.0320   -0.3400   38.6220 O.2    58  LEU58      -0.2867
     58  CB        10.8050    3.0940   38.9230 C.3    58  LEU58       0.0270
     59  CG         9.3760    3.2850   38.3750 C.3    58  LEU58       0.0019
     60  CD1        9.4040    3.5210   36.8860 C.3    58  LEU58       0.0001
     61  CD2        8.4530    2.1290   38.7350 C.3    58  LEU58       0.0001
     62  N          8.7300   -0.8270   42.3840 N.3    60  LYS60      -0.1245
     63  CA         7.5220   -0.5130   43.1530 C.3    60  LYS60       0.1561
     64  C          7.0880   -1.8230   43.8090 C.2    60  LYS60       0.2260
     65  O          7.2730   -2.9010   43.2350 O.2    60  LYS60      -0.2867
     66  CB         6.4150    0.0110   42.2100 C.3    60  LYS60       0.0271
     67  CG         5.0680    0.3560   42.8800 C.3    60  LYS60       0.0035
     68  CD         4.0200    0.8320   41.8530 C.3    60  LYS60       0.0206
     69  CE         2.5800    0.7090   42.3920 C.3    60  LYS60       0.1093
     70  NZ         1.4990    1.1530   41.4340 N.3    60  LYS60      -0.1314
     71  N          9.4010   -2.0140   37.1360 N.3    69  LYS69      -0.1245
     72  CA         8.5810   -1.5100   36.0470 C.3    69  LYS69       0.1561
     73  C          9.3660   -0.6120   35.1120 C.2    69  LYS69       0.2260
     74  O         10.3770   -0.0310   35.4950 O.2    69  LYS69      -0.2867
     75  CB         7.3780   -0.7520   36.5990 C.3    69  LYS69       0.0271
     76  CG         6.3990   -1.6360   37.3490 C.3    69  LYS69       0.0035
     77  CD         5.0830   -0.9200   37.5770 C.3    69  LYS69       0.0206
     78  CE         4.0360   -1.8910   38.0700 C.3    69  LYS69       0.1093
     79  NZ         3.7840   -2.9540   37.0620 N.3    69  LYS69      -0.1314
     80  N          8.5800    2.5700   32.6650 N.3    71  ILE71      -0.1245
     81  CA         7.6620    3.6080   32.2200 C.3    71  ILE71       0.1561
     82  C          8.3450    4.4970   31.1890 C.2    71  ILE71       0.2260
     83  O          9.5620    4.6330   31.1950 O.2    71  ILE71      -0.2867
     84  CB         7.2210    4.4570   33.4290 C.3    71  ILE71       0.0252
     85  CG1        6.4530    3.5780   34.4170 C.3    71  ILE71       0.0019
     86  CG2        6.3820    5.6350   32.9840 C.3    71  ILE71       0.0019
     87  CD1        6.0970    4.2700   35.7080 C.3    71  ILE71       0.0001
     88  N          8.3140    8.3130   29.4830 N.3    73  ALA73      -0.1245
     89  CA         7.8830    9.6860   29.6520 C.3    73  ALA73       0.1562
     90  C          8.2030   10.3360   28.3150 C.2    73  ALA73       0.2260
     91  O          9.3710   10.4190   27.9160 O.2    73  ALA73      -0.2867
     92  CB         8.6680   10.3560   30.7740 C.3    73  ALA73       0.0290
     93  N          3.3340   11.0840   30.8710 N.3    84  ILE84      -0.1245
     94  CA         3.2470    9.6340   31.0470 C.3    84  ILE84       0.1561
     95  C          1.8100    9.2350   30.6560 C.2    84  ILE84       0.2260
     96  O          0.8830   10.0160   30.8610 O.2    84  ILE84      -0.2867
     97  CB         3.6000    9.2330   32.5020 C.3    84  ILE84       0.0252
     98  CG1        5.0720    9.5570   32.7810 C.3    84  ILE84       0.0019
     99  CG2        3.3610    7.7460   32.7230 C.3    84  ILE84       0.0019
    100  CD1        5.5300    9.2100   34.1790 C.3    84  ILE84       0.0001
    101  N          5.4710   15.1350   34.3160 N.3    92  VAL92      -0.1245
    102  CA         6.6820   15.0480   35.1170 C.3    92  VAL92       0.1561
    103  C          7.4100   16.3430   34.8080 C.2    92  VAL92       0.2260
    104  O          7.4450   16.7690   33.6550 O.2    92  VAL92      -0.2867
    105  CB         7.5570   13.8400   34.6940 C.3    92  VAL92       0.0252
    106  CG1        8.9230   13.9310   35.3290 C.3    92  VAL92       0.0019
    107  CG2        6.8880   12.5340   35.0940 C.3    92  VAL92       0.0019
    108  N         11.0930   18.5200   35.6570 N.3    94  VAL94      -0.1245
    109  CA        12.4290   18.5200   36.2440 C.3    94  VAL94       0.1561
    110  C         12.6430   19.9480   36.7270 C.2    94  VAL94       0.2260
    111  O         12.6210   20.8870   35.9300 O.2    94  VAL94      -0.2867
    112  CB        13.5090   18.1340   35.2090 C.3    94  VAL94       0.0252
    113  CG1       14.8850   18.1340   35.8580 C.3    94  VAL94       0.0019
    114  CG2       13.2100   16.7640   34.6220 C.3    94  VAL94       0.0019
    115  N         19.1150   15.5580   41.0910 N.3   103  LEU103     -0.1245
    116  CA        18.0410   15.8870   40.1520 C.3   103  LEU103      0.1561
    117  C         16.7710   15.9310   40.9860 C.2   103  LEU103      0.2260
    118  O         16.4950   15.0070   41.7550 O.2   103  LEU103     -0.2867
    119  CB        17.8810   14.8200   39.0550 C.3   103  LEU103      0.0270
    120  CG        16.8310   15.0820   37.9580 C.3   103  LEU103      0.0019
    121  CD1       17.4050   14.6800   36.6250 C.3   103  LEU103      0.0001
    122  CD2       15.5100   14.3580   38.2320 C.3   103  LEU103      0.0001
    123  N         12.5750   16.4090   40.8520 N.3   105  PHE105     -0.1241
    124  CA        11.4430   16.3630   39.9310 C.3   105  PHE105      0.1605
    125  C         10.1520   16.2030   40.7040 C.2   105  PHE105      0.2264
    126  O         10.1440   15.7510   41.8500 O.2   105  PHE105     -0.2867
    127  CB        11.5870   15.2310   38.8980 C.3   105  PHE105      0.0534
    128  CG        11.1520   13.8800   39.3960 C.ar  105  PHE105     -0.0203
    129  CD1        9.8320   13.4690   39.2580 C.ar  105  PHE105     -0.0042
    130  CD2       12.0640   13.0270   40.0030 C.ar  105  PHE105     -0.0042
    131  CE1        9.4170   12.2260   39.7190 C.ar  105  PHE105     -0.0003
    132  CE2       11.6760   11.7890   40.4680 C.ar  105  PHE105     -0.0003
    133  CZ        10.3430   11.3740   40.3280 C.ar  105  PHE105     -0.0000
    134  N          5.7670   15.2800   40.0920 N.3   107  MET107     -0.1245
    135  CA         4.8240   14.6010   39.2200 C.3   107  MET107      0.1570
    136  C          3.4440   15.0620   39.6780 C.2   107  MET107      0.2261
    137  O          3.2280   15.2430   40.8750 O.2   107  MET107     -0.2867
    138  CB         4.9780   13.0990   39.4320 C.3   107  MET107      0.0387
    139  CG         4.5060   12.2440   38.2910 C.3   107  MET107      0.0595
    140  SD         4.5360   10.5120   38.7540 S.3   107  MET107     -0.1393
    141  CE         2.8550   10.0680   38.3820 C.3   107  MET107      0.0692
    142  N         16.6360   12.8940   43.6130 N.3   122  LEU122     -0.1245
    143  CA        17.4270   11.7860   43.1010 C.3   122  LEU122      0.1561
    144  C         18.8950   12.1630   43.1840 C.2   122  LEU122      0.2260
    145  O         19.2580   13.3020   42.9110 O.2   122  LEU122     -0.2867
    146  CB        17.0900   11.5040   41.6390 C.3   122  LEU122      0.0270
    147  CG        15.6520   11.2150   41.2170 C.3   122  LEU122      0.0019
    148  CD1       15.6340   10.8280   39.7280 C.3   122  LEU122      0.0001
    149  CD2       15.0670   10.1040   42.0720 C.3   122  LEU122      0.0001
@<TRIPOS>BOND
     1    38    39    1
     2    91    90    2
     3    90    89    1
     4    39    40    1
     5    39    42    1
     6    40    41    2
     7    88    89    1
     8    42    43    1
     9    89    92    1
    10    44    43    1
    11    95    96    2
    12    95    94    1
    13    43    45    1
    14    93    94    1
    15    94    97    1
    16    82    83    2
    17    82    81    1
    18    46    47    1
    19    33    32    2
    20    32    31    1
    21    81    80    1
    22    81    84    1
    23    97    99    1
    24    97    98    1
    25    98   100    1
    26    86    84    1
    27    47    48    1
    28    47    50    1
    29    51    53    1
    30    51    50    1
    31    84    85    1
    32    31    34    1
    33    31    30    1
    34    49    48    2
    35   104   103    2
    36    34    35    1
    37    50    52    1
    38   101   102    1
    39    85    87    1
    40   114   112    1
    41   105   107    1
    42   105   102    1
    43   105   106    1
    44    37    35    1
    45   103   102    1
    46    35    36    1
    47    73    74    2
    48    73    72    1
    49   112   113    1
    50   112   109    1
    51   108   109    1
    52   111   110    2
    53    72    75    1
    54    72    71    1
    55   109   110    1
    56    75    76    1
    57   121   120    1
    58    60    59    1
    59    79    78    1
    60    54    55    1
    61    76    77    1
    62    77    78    1
    63   120   122    1
    64   120   119    1
    65   139   140    1
    66   139   138    1
    67    59    61    1
    68    59    58    1
    69   141   140    1
    70    57    56    2
    71    55    58    1
    72    55    56    1
    73   127   128    1
    74   127   124    1
    75    28    27    1
    76   119   116    1
    77   135   138    1
    78   135   136    1
    79   135   134    1
    80   129   128   ar
    81   129   131   ar
    82   128   130   ar
    83   136   137    2
    84   131   133   ar
    85   148   147    1
    86   124   125    1
    87   124   123    1
    88    29    27    1
    89   130   132   ar
    90   116   117    1
    91   116   115    1
    92    27    24    1
    93   133   132   ar
    94    25    24    1
    95    25    26    2
    96    24    23    1
    97   125   126    2
    98   117   118    2
    99   147   146    1
   100   147   149    1
   101    70    69    1
   102   146   143    1
   103    21    20    1
   104    68    69    1
   105    68    67    1
   106    22    20    1
   107    20    17    1
   108    15    13    1
   109    66    67    1
   110    66    63    1
   111    62    63    1
   112    13    14    1
   113    13    12    1
   114   145   144    2
   115   143   144    1
   116   143   142    1
   117     4     3    2
   118    63    64    1
   119    65    64    2
   120    17    18    1
   121    17    16    1
   122    18    19    2
   123    12     9    1
   124     3     8   am
   125     3     2    1
   126     9     8    1
   127     9    10    1
   128     5     2    1
   129     5     6    1
   130     2     1    1
   131    11    10    2
   132     6     7    1
   133     1     7    1
