@<TRIPOS>MOLECULE
tmp/1bt4A00.pdb
 104 98 0 0 0
SMALL
GASTEIGER

@<TRIPOS>ATOM
      1  N          2.0360   -3.1350    1.3920 N.3    74  GLY74      -0.1210
      2  CA         2.9940   -2.1810    0.8620 C.3    74  GLY74       0.1956
      3  C          4.4570   -2.3680    1.2170 C.2    74  GLY74       0.2612
      4  O          5.3080   -1.6580    0.6860 O.2    74  GLY74      -0.2717
      5  N          4.7570   -3.2960    2.1200 N.am   75  GLY75      -0.1942
      6  CA         6.1380   -3.5330    2.5040 C.3    75  GLY75       0.2014
      7  C          6.6750   -2.4730    3.4400 C.2    75  GLY75       0.2639
      8  O          5.9850   -1.5050    3.7610 O.2    75  GLY75      -0.2714
      9  N          7.8970   -2.6760    3.9150 N.am   76  ALA76      -0.1963
     10  CA         8.5330   -1.7200    4.8050 C.3    76  ALA76       0.1728
     11  C          8.7550   -0.3990    4.0720 C.2    76  ALA76       0.2616
     12  O          8.8620    0.6500    4.7010 O.2    76  ALA76      -0.2715
     13  CB         9.8560   -2.2750    5.3250 C.3    76  ALA76       0.0334
     14  N          8.8130   -0.4560    2.7430 N.am   77  SER77      -0.1950
     15  CA         9.0170    0.7360    1.9250 C.3    77  SER77       0.1924
     16  C          7.8710    1.7360    2.0590 C.2    77  SER77       0.2314
     17  O          8.1010    2.9340    2.1390 O.2    77  SER77      -0.2863
     18  CB         9.1840    0.3640    0.4430 C.3    77  SER77       0.2116
     19  OG        10.3980   -0.3190    0.2130 O.3    77  SER77      -0.2180
     20  N          8.0900    3.8830    4.9220 N.3    80  PHE80      -0.1241
     21  CA         9.0680    4.9660    4.8050 C.3    80  PHE80       0.1605
     22  C          8.3380    6.2970    4.5890 C.2    80  PHE80       0.2264
     23  O          8.7780    7.3350    5.0820 O.2    80  PHE80      -0.2867
     24  CB        10.0340    4.7080    3.6380 C.3    80  PHE80       0.0534
     25  CG        11.0470    3.6220    3.9040 C.ar   80  PHE80      -0.0203
     26  CD1       11.1370    3.0090    5.1550 C.ar   80  PHE80      -0.0042
     27  CD2       11.9280    3.2300    2.9070 C.ar   80  PHE80      -0.0042
     28  CE1       12.0980    2.0180    5.4060 C.ar   80  PHE80      -0.0003
     29  CE2       12.8910    2.2400    3.1470 C.ar   80  PHE80      -0.0003
     30  CZ        12.9770    1.6360    4.3960 C.ar   80  PHE80      -0.0000
     31  N         19.4360    1.1650    3.9740 N.3   102  TRP102     -0.1241
     32  CA        18.0180    1.2310    4.3180 C.3   102  TRP102      0.1605
     33  C         17.6890    2.4570    5.1300 C.2   102  TRP102      0.2264
     34  O         16.6030    3.0180    4.9940 O.2   102  TRP102     -0.2867
     35  CB        17.5500   -0.0570    4.9920 C.3   102  TRP102      0.0550
     36  CG        17.3740   -1.1490    3.9960 C.ar  102  TRP102      0.0003
     37  CD1       18.0480   -2.3320    3.9460 C.ar  102  TRP102      0.0946
     38  CD2       16.4920   -1.1400    2.8680 C.ar  102  TRP102      0.0152
     39  NE1       17.6430   -3.0620    2.8550 N.ar  102  TRP102     -0.2442
     40  CE2       16.6860   -2.3540    2.1780 C.ar  102  TRP102      0.0810
     41  CE3       15.5520   -0.2220    2.3740 C.ar  102  TRP102      0.0012
     42  CZ2       15.9750   -2.6780    1.0180 C.ar  102  TRP102      0.0191
     43  CZ3       14.8460   -0.5400    1.2230 C.ar  102  TRP102      0.0001
     44  CH2       15.0600   -1.7590    0.5580 C.ar  102  TRP102      0.0015
     45  N         17.4260    2.1190   11.9410 N.3   148  THR148     -0.1218
     46  CA        17.3630    0.8200   11.2850 C.3   148  THR148      0.1862
     47  C         18.1010   -0.0960   12.2420 C.2   148  THR148      0.2287
     48  O         19.3000    0.0510   12.4310 O.2   148  THR148     -0.2866
     49  CB        18.0860    0.8580    9.9080 C.3   148  THR148      0.1770
     50  OG1       17.4760    1.8580    9.0860 O.3   148  THR148     -0.2211
     51  CG2       17.9800   -0.4700    9.1870 C.3   148  THR148      0.0375
     52  N         18.7560   -3.3400   12.0080 N.3   150  ASN150     -0.1240
     53  CA        19.6810   -4.2180   11.2820 C.3   150  ASN150      0.1653
     54  C         19.7820   -3.7570    9.8320 C.2   150  ASN150      0.2266
     55  O         18.7640   -3.6590    9.1390 O.2   150  ASN150     -0.2867
     56  CB        19.1970   -5.6910   11.3220 C.3   150  ASN150      0.1155
     57  CG        20.2170   -6.6800   10.7270 C.2   150  ASN150      0.2627
     58  OD1       21.2990   -6.8660   11.2700 O.2   150  ASN150     -0.2716
     59  ND2       19.8590   -7.3180    9.6240 N.am  150  ASN150     -0.0877
     60  N         20.4660   -4.7510    6.5590 N.3   152  THR152     -0.1218
     61  CA        20.5020   -5.9540    5.7350 C.3   152  THR152      0.1862
     62  C         21.5990   -6.0040    4.6770 C.2   152  THR152      0.2287
     63  O         22.2210   -7.0470    4.4560 O.2   152  THR152     -0.2866
     64  CB        19.1510   -6.1440    5.0280 C.3   152  THR152      0.1770
     65  OG1       18.0980   -5.7620    5.9210 O.3   152  THR152     -0.2211
     66  CG2       18.9500   -7.5970    4.6260 C.3   152  THR152      0.0375
     67  N         13.1030    0.4330   12.0920 N.3   172  ASP172     -0.1239
     68  CA        12.8880   -0.4820   10.9810 C.3   172  ASP172      0.1674
     69  C         13.5610   -1.7950   11.3940 C.2   172  ASP172      0.2266
     70  O         14.7960   -1.8790   11.4690 O.2   172  ASP172     -0.2867
     71  CB        13.5420    0.0770    9.7140 C.3   172  ASP172      0.1410
     72  CG        13.3210   -0.7970    8.4990 C.2   172  ASP172      0.3668
     73  OD1       12.8390   -1.9500    8.6280 O.co2 172  ASP172     -0.2456
     74  OD2       13.6310   -0.3120    7.3920 O.co2 172  ASP172     -0.2456
     75  N         12.8150   -4.8160    9.8500 N.3   174  SER174     -0.1202
     76  CA        12.5130   -5.7730    8.7940 C.3   174  SER174      0.2020
     77  C         13.3690   -7.0300    8.8440 C.2   174  SER174      0.2619
     78  O         12.8340   -8.1390    8.8660 O.2   174  SER174     -0.2717
     79  CB        12.6510   -5.1280    7.4160 C.3   174  SER174      0.2103
     80  OG        11.7220   -4.0740    7.2320 O.3   174  SER174     -0.2182
     81  N         14.6840   -6.8600    8.9540 N.am  175  SER175     -0.1951
     82  CA        15.5790   -8.0090    8.9590 C.3   175  SER175      0.1924
     83  C         15.9940   -8.6500   10.2880 C.2   175  SER175      0.2314
     84  O         16.7210   -9.6400   10.2820 O.2   175  SER175     -0.2863
     85  CB        16.8020   -7.7480    8.0650 C.3   175  SER175      0.2116
     86  OG        17.5850   -6.6790    8.5540 O.3   175  SER175     -0.2180
     87  N          8.4750  -10.8000    4.9880 N.3   195  GLN195     -0.1231
     88  CA         9.2870  -11.6830    4.1460 C.3   195  GLN195      0.1698
     89  C         10.7360  -11.9340    4.5280 C.2   195  GLN195      0.2592
     90  O         11.3790  -12.8290    3.9860 O.2   195  GLN195     -0.2718
     91  CB         9.2560  -11.2170    2.6950 C.3   195  GLN195      0.0381
     92  CG        10.0460   -9.9480    2.4030 C.3   195  GLN195      0.0905
     93  CD         9.3000   -8.6730    2.7690 C.2   195  GLN195      0.2608
     94  OE1        8.1940   -8.7090    3.3230 O.2   195  GLN195     -0.2717
     95  NE2        9.9040   -7.5330    2.4460 N.am  195  GLN195     -0.0878
     96  N         11.2700  -11.1250    5.4260 N.am  196  LYS196     -0.1980
     97  CA        12.6490  -11.2870    5.8280 C.3   196  LYS196      0.1596
     98  C         12.8500  -12.3190    6.9450 C.2   196  LYS196      0.2287
     99  O         13.6190  -13.2680    6.7880 O.2   196  LYS196     -0.2864
    100  CB        13.2070   -9.9290    6.2460 C.3   196  LYS196      0.0298
    101  CG        14.0780   -9.2210    5.2170 C.3   196  LYS196      0.0038
    102  CD        13.4400   -8.7950    3.8640 C.3   196  LYS196      0.0206
    103  CE        14.5960   -8.0920    3.1900 C.3   196  LYS196      0.1093
    104  NZ        14.7400   -6.6910    3.6670 N.3   196  LYS196     -0.1314
@<TRIPOS>BOND
     1    19    18    1
     2    18    15    1
     3    44    42   ar
     4    44    43   ar
     5     4     3    2
     6     2     3    1
     7     2     1    1
     8    42    40   ar
     9     3     5   am
    10    43    41   ar
    11    15    16    1
    12    15    14    1
    13    16    17    2
    14     5     6    1
    15    40    39   ar
    16    40    38   ar
    17    41    38   ar
    18    92    91    1
    19    92    93    1
    20    95    93   am
    21     6     7    1
    22    91    88    1
    23    14    11   am
    24    93    94    2
    25    39    37   ar
    26    38    36   ar
    27    27    29   ar
    28    27    25   ar
    29    29    30   ar
    30   103   104    1
    31   103   102    1
    32     7     8    2
    33     7     9   am
    34    24    25    1
    35    24    21    1
    36   102   101    1
    37    25    26   ar
    38     9    10    1
    39    37    36   ar
    40    31    32    1
    41    90    89    2
    42    36    35    1
    43    11    12    2
    44    11    10    1
    45    88    89    1
    46    88    87    1
    47    32    35    1
    48    32    33    1
    49    30    28   ar
    50    63    62    2
    51    89    96   am
    52    22    21    1
    53    22    23    2
    54    66    64    1
    55    62    61    1
    56    21    20    1
    57    10    13    1
    58    34    33    2
    59    64    61    1
    60    64    65    1
    61    26    28   ar
    62   101   100    1
    63    96    97    1
    64    61    60    1
    65    97   100    1
    66    97    98    1
    67    99    98    2
    68    80    79    1
    69    74    72   ar
    70    79    76    1
    71    85    86    1
    72    85    82    1
    73    72    73   ar
    74    72    71    1
    75    76    77    1
    76    76    75    1
    77    77    78    2
    78    77    81   am
    79    81    82    1
    80    82    83    1
    81    50    49    1
    82    55    54    2
    83    51    49    1
    84    59    57   am
    85    71    68    1
    86    54    53    1
    87    49    46    1
    88    84    83    2
    89    57    58    2
    90    57    56    1
    91    68    69    1
    92    68    67    1
    93    53    56    1
    94    53    52    1
    95    46    45    1
    96    46    47    1
    97    69    70    2
    98    47    48    2
