@<TRIPOS>MOLECULE
tmp/1btcA00.pdb
 177 171 0 0 0
SMALL
GASTEIGER

@<TRIPOS>ATOM
      1  N         -2.9410   16.7890   22.6740 N.3    97  ASP97      -0.1239
      2  CA        -2.4980   17.9450   21.9160 C.3    97  ASP97       0.1674
      3  C         -2.7990   17.7990   20.4270 C.2    97  ASP97       0.2266
      4  O         -2.5210   16.7850   19.7630 O.2    97  ASP97      -0.2867
      5  CB        -0.9950   18.1950   22.0710 C.3    97  ASP97       0.1410
      6  CG        -0.7480   19.3190   23.0770 C.2    97  ASP97       0.3668
      7  OD1       -1.5000   20.3140   23.0610 O.co2  97  ASP97      -0.2456
      8  OD2        0.1940   19.1990   23.8780 O.co2  97  ASP97      -0.2456
      9  N          8.7600   32.4870   24.3250 N.3   182  GLU182     -0.1245
     10  CA         8.9310   33.5000   25.3670 C.3   182  GLU182      0.1567
     11  C         10.2990   33.4110   26.0170 C.2   182  GLU182      0.2260
     12  O         10.8550   32.3270   26.1990 O.2   182  GLU182     -0.2867
     13  CB         7.8780   33.3300   26.4660 C.3   182  GLU182      0.0388
     14  CG         6.5110   33.4060   25.8340 C.3   182  GLU182      0.1160
     15  CD         5.3330   32.9410   26.6570 C.2   182  GLU182      0.3649
     16  OE1        5.4100   31.9810   27.3950 O.co2 182  GLU182     -0.2457
     17  OE2        4.2900   33.5470   26.5270 O.co2 182  GLU182     -0.2457
     18  N         12.0810   32.9560   28.8710 N.3   184  ARG184     -0.1245
     19  CA        11.9000   32.4250   30.2170 C.3   184  ARG184      0.1563
     20  C         12.3640   30.9790   30.3120 C.2   184  ARG184      0.2260
     21  O         12.7100   30.3590   29.3080 O.2   184  ARG184     -0.2867
     22  CB        10.4310   32.4780   30.6570 C.3   184  ARG184      0.0307
     23  CG         9.5330   31.7800   29.6770 C.3   184  ARG184      0.0489
     24  CD         8.1970   31.8080   30.3090 C.3   184  ARG184      0.2205
     25  NE         7.2820   31.0790   29.4770 N.pl3 184  ARG184     -0.0865
     26  CZ         7.0640   29.7830   29.6000 C.cat 184  ARG184      0.5346
     27  NH1        7.6890   29.0290   30.4950 N.pl3 184  ARG184      0.1354
     28  NH2        6.0930   29.2560   28.8740 N.pl3 184  ARG184      0.1354
     29  N          6.9780   25.9840   34.3980 N.3   188  TYR188     -0.1241
     30  CA         5.6720   25.4480   34.6880 C.3   188  TYR188      0.1605
     31  C          5.1550   24.4820   33.6310 C.2   188  TYR188      0.2264
     32  O          4.1240   24.7230   32.9920 O.2   188  TYR188     -0.2867
     33  CB         4.7230   26.6280   34.9060 C.3   188  TYR188      0.0534
     34  CG         4.6150   27.7460   33.8920 C.ar  188  TYR188     -0.0201
     35  CD1        5.5710   28.7390   33.8050 C.ar  188  TYR188     -0.0009
     36  CD2        3.4890   27.7950   33.1020 C.ar  188  TYR188     -0.0009
     37  CE1        5.3850   29.7830   32.9310 C.ar  188  TYR188      0.0417
     38  CE2        3.2930   28.8310   32.2250 C.ar  188  TYR188      0.0417
     39  CZ         4.2470   29.8140   32.1560 C.ar  188  TYR188      0.1957
     40  OH         4.0210   30.8770   31.3210 O.3   188  TYR188     -0.2866
     41  N          3.3650   21.6560   31.9970 N.3   190  GLN190     -0.1245
     42  CA         2.0950   20.9310   32.0930 C.3   190  GLN190      0.1566
     43  C          2.3080   19.4240   32.0300 C.2   190  GLN190      0.2260
     44  O          1.6800   18.6290   32.7250 O.2   190  GLN190     -0.2867
     45  CB         1.1790   21.3610   30.9340 C.3   190  GLN190      0.0367
     46  CG        -0.3310   21.3240   31.1740 C.3   190  GLN190      0.0905
     47  CD        -1.0140   22.5380   31.8660 C.2   190  GLN190      0.2608
     48  OE1       -1.4420   22.5040   33.0420 O.2   190  GLN190     -0.2717
     49  NE2       -1.2200   23.6270   31.1050 N.am  190  GLN190     -0.0878
     50  N          2.6310   19.9650   36.3510 N.3   194  TRP194     -0.1241
     51  CA         2.2180   21.2620   36.8580 C.3   194  TRP194      0.1605
     52  C          0.7870   21.6430   36.4820 C.2   194  TRP194      0.2264
     53  O          0.2270   21.3450   35.4250 O.2   194  TRP194     -0.2867
     54  CB         3.2130   22.3150   36.3630 C.3   194  TRP194      0.0550
     55  CG         2.9320   23.7380   36.8270 C.ar  194  TRP194      0.0003
     56  CD1        3.4710   24.2370   37.9800 C.ar  194  TRP194      0.0946
     57  CD2        2.0780   24.6370   36.2180 C.ar  194  TRP194      0.0152
     58  NE1        2.9480   25.4320   38.1110 N.ar  194  TRP194     -0.2442
     59  CE2        2.1160   25.7090   37.0920 C.ar  194  TRP194      0.0810
     60  CE3        1.2990   24.6660   35.0780 C.ar  194  TRP194      0.0012
     61  CZ2        1.3650   26.8230   36.8270 C.ar  194  TRP194      0.0191
     62  CZ3        0.5510   25.7870   34.8190 C.ar  194  TRP194      0.0001
     63  CH2        0.5830   26.8550   35.6860 C.ar  194  TRP194      0.0015
     64  N         -1.7990   25.1280   37.5950 N.3   196  PHE196     -0.1241
     65  CA        -2.0000   26.4470   38.1650 C.3   196  PHE196      0.1605
     66  C         -2.6430   26.2700   39.5420 C.2   196  PHE196      0.2264
     67  O         -3.5020   25.4010   39.6800 O.2   196  PHE196     -0.2867
     68  CB        -2.8980   27.2150   37.2170 C.3   196  PHE196      0.0534
     69  CG        -3.2630   28.6190   37.6740 C.ar  196  PHE196     -0.0203
     70  CD1       -2.3830   29.6600   37.4600 C.ar  196  PHE196     -0.0042
     71  CD2       -4.4820   28.8400   38.2920 C.ar  196  PHE196     -0.0042
     72  CE1       -2.7400   30.9140   37.8720 C.ar  196  PHE196     -0.0003
     73  CE2       -4.8180   30.1090   38.6920 C.ar  196  PHE196     -0.0003
     74  CZ        -3.9450   31.1430   38.4790 C.ar  196  PHE196     -0.0000
     75  N          6.5060   36.4320   29.1080 N.3   293  SER293     -0.1202
     76  CA         5.2910   35.8440   29.6780 C.3   293  SER293      0.2020
     77  C          4.6420   36.6620   30.7950 C.2   293  SER293      0.2619
     78  O          5.3070   37.4050   31.5060 O.2   293  SER293     -0.2717
     79  CB         5.6510   34.4700   30.1850 C.3   293  SER293      0.2103
     80  OG         4.5050   33.7700   30.6170 O.3   293  SER293     -0.2182
     81  N          3.3140   36.6050   30.9270 N.am  294  GLY294     -0.1956
     82  CA         2.6090   37.2350   32.0490 C.3   294  GLY294      0.1869
     83  C          2.2840   36.1760   33.1090 C.2   294  GLY294      0.2309
     84  O          1.3650   35.3730   32.9670 O.2   294  GLY294     -0.2863
     85  N          1.1530   35.9320   36.5040 N.3   296  HIS296     -0.1226
     86  CA         0.4400   36.7750   37.4290 C.3   296  HIS296      0.1752
     87  C          0.2170   36.1160   38.7540 C.2   296  HIS296      0.2596
     88  O         -0.0700   36.8380   39.7050 O.2   296  HIS296     -0.2718
     89  CB        -0.8850   37.1550   36.8010 C.3   296  HIS296      0.0759
     90  CG        -1.7740   35.9730   36.4220 C.ar  296  HIS296      0.0818
     91  ND1       -2.5410   35.2610   37.2280 N.ar  296  HIS296     -0.2268
     92  CD2       -1.9100   35.4610   35.1600 C.ar  296  HIS296      0.1154
     93  CE1       -3.1370   34.3520   36.5270 C.ar  296  HIS296      0.1986
     94  NE2       -2.7500   34.4790   35.2870 N.ar  296  HIS296     -0.2212
     95  N          0.2910   34.7850   38.8380 N.am  297  TRP297     -0.1976
     96  CA         0.0840   34.0980   40.0930 C.3   297  TRP297      0.1640
     97  C          1.2880   34.2220   41.0130 C.2   297  TRP297      0.2290
     98  O          2.4330   34.1070   40.6020 O.2   297  TRP297     -0.2864
     99  CB        -0.2600   32.6250   39.8280 C.3   297  TRP297      0.0576
    100  CG         0.6220   31.7510   38.9280 C.ar  297  TRP297      0.0006
    101  CD1        1.4300   30.8150   39.5000 C.ar  297  TRP297      0.0946
    102  CD2        0.6880   31.7260   37.5390 C.ar  297  TRP297      0.0152
    103  NE1        2.0010   30.2000   38.4970 N.ar  297  TRP297     -0.2442
    104  CE2        1.5920   30.7030   37.3190 C.ar  297  TRP297      0.0810
    105  CE3        0.1410   32.3830   36.4460 C.ar  297  TRP297      0.0012
    106  CZ2        1.9600   30.3320   36.0350 C.ar  297  TRP297      0.0191
    107  CZ3        0.5130   32.0090   35.1720 C.ar  297  TRP297      0.0001
    108  CH2        1.4120   30.9940   34.9640 C.ar  297  TRP297      0.0015
    109  N          2.6010   38.7420   26.6500 N.3   338  THR338     -0.1203
    110  CA         1.6000   37.7490   26.2740 C.3   338  THR338      0.1994
    111  C          0.3990   37.5320   27.1700 C.2   338  THR338      0.2618
    112  O         -0.1990   36.4550   27.1700 O.2   338  THR338     -0.2717
    113  CB         2.3270   36.3810   26.0210 C.3   338  THR338      0.1784
    114  OG1        2.7820   35.9620   27.2890 O.3   338  THR338     -0.2211
    115  CG2        3.5080   36.4500   25.0230 C.3   338  THR338      0.0376
    116  N         -0.0120   38.5560   27.9030 N.am  339  CYS339     -0.1969
    117  CA        -1.1900   38.4240   28.7360 C.3   339  CYS339      0.1712
    118  C         -1.7530   39.8190   28.9260 C.2   339  CYS339      0.2296
    119  O         -1.0720   40.7150   29.4190 O.2   339  CYS339     -0.2864
    120  CB        -0.7920   37.7860   30.0400 C.3   339  CYS339      0.0983
    121  SG        -2.2610   37.4170   31.0080 S.3   339  CYS339     -0.0798
    122  N         -6.9340   39.5760   31.4350 N.3   342  MET342     -0.1245
    123  CA        -7.4040   39.0970   32.7010 C.3   342  MET342      0.1570
    124  C         -7.6270   40.1600   33.7360 C.2   342  MET342      0.2261
    125  O         -7.0280   41.2320   33.7330 O.2   342  MET342     -0.2867
    126  CB        -6.4220   38.0770   33.1850 C.3   342  MET342      0.0387
    127  CG        -6.4410   36.8750   32.2720 C.3   342  MET342      0.0595
    128  SD        -5.3710   35.5590   32.8790 S.3   342  MET342     -0.1393
    129  CE        -5.1670   34.4890   31.4920 C.3   342  MET342      0.0692
    130  N         -9.6710   35.6770   39.1190 N.3   347  GLN347     -0.1245
    131  CA        -8.7590   34.7080   39.7360 C.3   347  GLN347      0.1566
    132  C         -9.1800   34.0940   41.0620 C.2   347  GLN347      0.2260
    133  O         -9.6650   34.8340   41.9260 O.2   347  GLN347     -0.2867
    134  CB        -7.4090   35.3690   39.9330 C.3   347  GLN347      0.0367
    135  CG        -6.8420   35.9140   38.6500 C.3   347  GLN347      0.0905
    136  CD        -6.6910   34.7980   37.6660 C.2   347  GLN347      0.2608
    137  OE1       -6.2730   33.6890   37.9960 O.2   347  GLN347     -0.2717
    138  NE2       -7.0940   35.1200   36.4430 N.am  347  GLN347     -0.0878
    139  N         -3.8150   35.8030   26.6590 N.3   378  ALA378     -0.1231
    140  CA        -3.2020   34.5290   26.9820 C.3   378  ALA378      0.1694
    141  C         -4.0770   33.3200   26.6930 C.2   378  ALA378      0.2592
    142  O         -3.6180   32.2380   26.3060 O.2   378  ALA378     -0.2718
    143  CB        -2.8310   34.5610   28.4570 C.3   378  ALA378      0.0304
    144  N         -5.3760   33.4890   26.9010 N.am  379  LEU379     -0.1966
    145  CA        -6.2770   32.3870   26.6900 C.3   379  LEU379      0.1713
    146  C         -7.4010   32.8830   25.8060 C.2   379  LEU379      0.2458
    147  O         -7.7540   34.0670   25.7860 O.2   379  LEU379     -0.2730
    148  CB        -6.7720   31.8570   28.0820 C.3   379  LEU379      0.0310
    149  CG        -5.7790   30.9750   28.8980 C.3   379  LEU379      0.0022
    150  CD1       -6.3170   30.7580   30.2660 C.3   379  LEU379      0.0001
    151  CD2       -5.6200   29.6010   28.3020 C.3   379  LEU379      0.0001
    152  N         -7.9700   31.9830   24.9910 N.am  380  PRO380     -0.2727
    153  CA        -9.0670   32.3120   24.1060 C.3   380  PRO380      0.1402
    154  C        -10.2310   32.8340   24.8750 C.2   380  PRO380      0.2269
    155  O        -10.6540   32.2170   25.8470 O.2   380  PRO380     -0.2865
    156  CB        -9.3570   31.0310   23.3740 C.3   380  PRO380      0.0296
    157  CG        -8.7020   29.9580   24.1880 C.3   380  PRO380      0.0237
    158  CD        -7.4630   30.6520   24.6900 C.3   380  PRO380      0.0939
    159  N         -5.3190   35.8700   20.1480 N.3   415  LEU415     -0.1231
    160  CA        -5.1000   34.4370   20.1110 C.3   415  LEU415      0.1693
    161  C         -6.3590   33.7110   19.6540 C.2   415  LEU415      0.2591
    162  O         -7.4630   33.7170   20.1870 O.2   415  LEU415     -0.2718
    163  CB        -4.6700   33.8910   21.4830 C.3   415  LEU415      0.0284
    164  CG        -4.1760   32.4460   21.6470 C.3   415  LEU415      0.0019
    165  CD1       -3.3740   32.4010   22.9260 C.3   415  LEU415      0.0001
    166  CD2       -5.3180   31.4220   21.7280 C.3   415  LEU415      0.0001
    167  N         -5.8960   33.2440   18.4910 N.am  416  ARG416     -0.1980
    168  CA        -6.4350   32.4380   17.4440 C.3   416  ARG416      0.1597
    169  C         -7.7200   32.6520   16.6900 C.2   416  ARG416      0.2287
    170  O         -8.7980   33.0870   17.1060 O.2   416  ARG416     -0.2864
    171  CB        -6.3410   31.0290   17.9960 C.3   416  ARG416      0.0334
    172  CG        -5.1810   30.4980   17.1840 C.3   416  ARG416      0.0492
    173  CD        -4.6570   29.1860   17.6660 C.3   416  ARG416      0.2205
    174  NE        -3.6560   29.3940   18.7030 N.pl3 416  ARG416     -0.0865
    175  CZ        -2.3690   29.6350   18.4280 C.cat 416  ARG416      0.5346
    176  NH1       -1.9060   29.7110   17.1930 N.pl3 416  ARG416      0.1354
    177  NH2       -1.4860   29.7830   19.4100 N.pl3 416  ARG416      0.1354
@<TRIPOS>BOND
     1   169   170    2
     2   169   168    1
     3   172   173    1
     4   172   171    1
     5   176   175    1
     6   168   171    1
     7   168   167    1
     8   173   174    1
     9   175   174    2
    10   175   177    1
    11   167   161   am
    12   161   160    1
    13   161   162    2
    14     4     3    2
    15   160   159    1
    16   160   163    1
    17     3     2    1
    18   163   164    1
    19   164   166    1
    20   164   165    1
    21     2     5    1
    22     2     1    1
    23     5     6    1
    24     7     6   ar
    25     6     8   ar
    26   156   153    1
    27   156   157    1
    28   153   154    1
    29   153   152    1
    30   157   158    1
    31     9    10    1
    32   158   152    1
    33   154   155    2
    34   152   146   am
    35   115   113    1
    36    10    11    1
    37    10    13    1
    38   147   146    2
    39   146   145    1
    40    14    13    1
    41    14    15    1
    42    11    12    2
    43   113   110    1
    44   113   114    1
    45   110   109    1
    46   110   111    1
    47   142   141    2
    48    17    15   ar
    49    15    16   ar
    50   139   140    1
    51   145   144    1
    52   145   148    1
    53   141   144   am
    54   141   140    1
    55   140   143    1
    56   111   112    2
    57   111   116   am
    58   116   117    1
    59   148   149    1
    60   151   149    1
    61   117   118    1
    62   117   120    1
    63    18    19    1
    64    28    26    1
    65   149   150    1
    66   118   119    2
    67    75    76    1
    68    21    20    2
    69    25    26    2
    70    25    24    1
    71    26    27    1
    72    23    24    1
    73    23    22    1
    74    76    79    1
    75    76    77    1
    76   120   121    1
    77    79    80    1
    78    19    20    1
    79    19    22    1
    80    77    81   am
    81    77    78    2
    82    81    82    1
    83    45    46    1
    84    45    42    1
    85    49    47   am
    86    46    47    1
    87    40    39    1
    88   122   123    1
    89   129   128    1
    90    47    48    2
    91    41    42    1
    92    43    42    1
    93    43    44    2
    94    82    83    1
    95    39    38   ar
    96    39    37   ar
    97    38    36   ar
    98   127   128    1
    99   127   126    1
   100   123   126    1
   101   123   124    1
   102    37    35   ar
   103    84    83    2
   104    32    31    2
   105    36    34   ar
   106    31    30    1
   107   125   124    2
   108    35    34   ar
   109    34    33    1
   110    29    30    1
   111    30    33    1
   112    62    60   ar
   113    62    63   ar
   114   108   107   ar
   115   108   106   ar
   116    60    57   ar
   117    92    94   ar
   118    92    90   ar
   119   107   105   ar
   120    94    93   ar
   121    53    52    2
   122    63    61   ar
   123   106   104   ar
   124    57    55   ar
   125    57    59   ar
   126    50    51    1
   127    54    55    1
   128    54    51    1
   129    90    89    1
   130    90    91   ar
   131   138   136   am
   132   105   102   ar
   133    52    51    1
   134    85    86    1
   135    93    91   ar
   136    89    86    1
   137    61    59   ar
   138    55    56   ar
   139    59    58   ar
   140    68    69    1
   141    68    65    1
   142   104   102   ar
   143   104   103   ar
   144    86    87    1
   145    70    69   ar
   146    70    72   ar
   147   102   100   ar
   148    64    65    1
   149   136   137    2
   150   136   135    1
   151    69    71   ar
   152    72    74   ar
   153    56    58   ar
   154    65    66    1
   155    71    73   ar
   156    74    73   ar
   157   103   101   ar
   158   135   134    1
   159    87    95   am
   160    87    88    2
   161    95    96    1
   162   100   101   ar
   163   100    99    1
   164   130   131    1
   165    66    67    2
   166   131   134    1
   167   131   132    1
   168    99    96    1
   169    96    97    1
   170    98    97    2
   171   132   133    2
