@<TRIPOS>MOLECULE
tmp/1btoB01.pdb
 123 118 0 0 0
SMALL
GASTEIGER

@<TRIPOS>ATOM
      1  N         38.3750   -5.0160   47.8210 N.3    46  CYS46      -0.1235
      2  CA        38.3200   -3.5380   47.9350 C.3    46  CYS46       0.1677
      3  C         39.2930   -3.1490   49.0350 C.2    46  CYS46       0.2270
      4  O         39.4360   -3.8740   50.0440 O.2    46  CYS46      -0.2867
      5  CB        36.8920   -3.1130   48.2630 C.3    46  CYS46       0.0956
      6  SG        36.4320   -1.4190   48.7300 S.3    46  CYS46      -0.0801
      7  N         38.6990   -1.3130   51.4940 N.3    48  SER48      -0.1217
      8  CA        37.9820   -1.3510   52.7510 C.3    48  SER48       0.1889
      9  C         38.0960   -2.7330   53.4410 C.2    48  SER48       0.2288
     10  O         38.1630   -2.7650   54.6930 O.2    48  SER48      -0.2866
     11  CB        36.5160   -1.0170   52.5810 C.3    48  SER48       0.2089
     12  OG        36.3160    0.2890   52.1360 O.3    48  SER48      -0.2183
     13  N         39.4690    0.3240   59.6710 N.3    57  LEU57      -0.1245
     14  CA        38.0190    0.2120   59.7820 C.3    57  LEU57       0.1561
     15  C         37.7370   -0.7910   60.8950 C.2    57  LEU57       0.2260
     16  O         38.1590   -1.9520   60.7860 O.2    57  LEU57      -0.2867
     17  CB        37.4300   -0.2020   58.4410 C.3    57  LEU57       0.0270
     18  CG        35.9260   -0.3340   58.2930 C.3    57  LEU57       0.0019
     19  CD1       35.1910    0.9560   58.6320 C.3    57  LEU57       0.0001
     20  CD2       35.5930   -0.7880   56.8670 C.3    57  LEU57       0.0001
     21  N         32.6740   -7.5940   50.8660 N.3    67  HIS67      -0.1241
     22  CA        31.3970   -6.9120   50.7290 C.3    67  HIS67       0.1621
     23  C         31.0640   -6.5640   49.2990 C.2    67  HIS67       0.2264
     24  O         29.9660   -6.1460   48.9900 O.2    67  HIS67      -0.2867
     25  CB        31.4700   -5.6730   51.6770 C.3    67  HIS67       0.0745
     26  CG        32.5270   -4.7440   51.1850 C.ar   67  HIS67       0.0817
     27  ND1       33.8590   -4.9130   51.5000 N.ar   67  HIS67      -0.2268
     28  CD2       32.4340   -3.6490   50.3670 C.ar   67  HIS67       0.1154
     29  CE1       34.5630   -3.9810   50.8820 C.ar   67  HIS67       0.1986
     30  NE2       33.7310   -3.2260   50.2310 N.ar   67  HIS67      -0.2212
     31  N         26.1250   -3.7320   51.1140 N.3    93  PHE93      -0.1241
     32  CA        26.7230   -3.4190   52.4230 C.3    93  PHE93       0.1605
     33  C         26.0260   -2.2550   53.1300 C.2    93  PHE93       0.2264
     34  O         26.1560   -2.1000   54.3790 O.2    93  PHE93      -0.2867
     35  CB        28.2060   -3.1880   52.3060 C.3    93  PHE93       0.0534
     36  CG        28.6530   -1.9390   51.6030 C.ar   93  PHE93      -0.0203
     37  CD1       28.6970   -0.7440   52.2900 C.ar   93  PHE93      -0.0042
     38  CD2       29.0390   -1.9860   50.2590 C.ar   93  PHE93      -0.0042
     39  CE1       29.1150    0.4370   51.6420 C.ar   93  PHE93      -0.0003
     40  CE2       29.4520   -0.8340   49.6080 C.ar   93  PHE93      -0.0003
     41  CZ        29.5020    0.3810   50.3070 C.ar   93  PHE93      -0.0000
     42  N         27.1260    0.0560   59.9820 N.3   116  LEU116     -0.1245
     43  CA        28.3530    0.8300   59.9290 C.3   116  LEU116      0.1561
     44  C         28.5120    1.7990   61.1000 C.2   116  LEU116      0.2260
     45  O         29.6010    1.8540   61.6580 O.2   116  LEU116     -0.2867
     46  CB        28.4240    1.6100   58.5860 C.3   116  LEU116      0.0270
     47  CG        29.6550    2.5170   58.4700 C.3   116  LEU116      0.0019
     48  CD1       30.9330    1.7020   58.4220 C.3   116  LEU116      0.0001
     49  CD2       29.5720    3.4040   57.2370 C.3   116  LEU116      0.0001
     50  N         30.0330   -9.0310   58.2780 N.3   140  PHE140     -0.1227
     51  CA        30.6630   -7.7360   57.9810 C.3   140  PHE140      0.1736
     52  C         29.6880   -6.8840   57.1420 C.2   140  PHE140      0.2595
     53  O         29.3480   -7.2480   55.9980 O.2   140  PHE140     -0.2718
     54  CB        31.9780   -7.8870   57.2510 C.3   140  PHE140      0.0547
     55  CG        32.6250   -6.5780   56.8270 C.ar  140  PHE140     -0.0202
     56  CD1       32.7460   -5.5080   57.7210 C.ar  140  PHE140     -0.0042
     57  CD2       33.0980   -6.4250   55.5240 C.ar  140  PHE140     -0.0042
     58  CE1       33.3460   -4.3220   57.3180 C.ar  140  PHE140     -0.0003
     59  CE2       33.7160   -5.2550   55.1280 C.ar  140  PHE140     -0.0003
     60  CZ        33.8440   -4.2090   56.0360 C.ar  140  PHE140     -0.0000
     61  N         29.0720   -5.9080   57.8020 N.am  141  LEU141     -0.1980
     62  CA        28.0920   -5.0370   57.1180 C.3   141  LEU141      0.1596
     63  C         26.9660   -5.8000   56.4280 C.2   141  LEU141      0.2287
     64  O         26.4430   -5.4240   55.3610 O.2   141  LEU141     -0.2864
     65  CB        28.7800   -4.1000   56.1000 C.3   141  LEU141      0.0297
     66  CG        29.7450   -3.0870   56.7170 C.3   141  LEU141      0.0022
     67  CD1       30.5220   -2.3280   55.6530 C.3   141  LEU141      0.0001
     68  CD2       28.9800   -2.0870   57.5910 C.3   141  LEU141      0.0001
     69  N         30.3100   -2.4740   45.0620 N.3   174  CYS174     -0.1235
     70  CA        31.0160   -1.4560   45.8340 C.3   174  CYS174      0.1677
     71  C         31.7810   -0.4300   44.9850 C.2   174  CYS174      0.2270
     72  O         31.3360    0.6770   44.7700 O.2   174  CYS174     -0.2867
     73  CB        31.9980   -2.0160   46.8550 C.3   174  CYS174      0.0956
     74  SG        32.6960   -0.6720   47.9100 S.3   174  CYS174     -0.0801
     75  N         35.4260   10.4830   49.8500 N.3   292  VAL292     -0.1231
     76  CA        35.0230    9.0910   49.5690 C.3   292  VAL292      0.1692
     77  C         35.8530    8.1050   50.3920 C.2   292  VAL292      0.2593
     78  O         35.3270    7.1250   50.8900 O.2   292  VAL292     -0.2718
     79  CB        35.2160    8.7590   48.0750 C.3   292  VAL292      0.0266
     80  CG1       34.7360    7.3290   47.7770 C.3   292  VAL292      0.0020
     81  CG2       34.3960    9.7420   47.2520 C.3   292  VAL292      0.0020
     82  N         37.1340    8.3660   50.5440 N.am  293  GLY293     -0.1942
     83  CA        38.0650    7.5780   51.3050 C.3   293  GLY293      0.2014
     84  C         37.6840    7.3920   52.7820 C.2   293  GLY293      0.2639
     85  O         37.0610    8.2340   53.4200 O.2   293  GLY293     -0.2714
     86  N         38.0270    6.2080   53.3040 N.am  294  VAL294     -0.1963
     87  CA        37.7500    5.8470   54.6840 C.3   294  VAL294      0.1712
     88  C         38.9850    6.1560   55.5400 C.2   294  VAL294      0.2458
     89  O         40.0480    5.6380   55.2590 O.2   294  VAL294     -0.2730
     90  CB        37.4490    4.3430   54.8420 C.3   294  VAL294      0.0289
     91  CG1       37.2490    3.9870   56.3150 C.3   294  VAL294      0.0023
     92  CG2       36.2240    3.9390   54.0560 C.3   294  VAL294      0.0023
     93  N         38.8240    7.0020   56.5180 N.am  295  PRO295     -0.2727
     94  CA        39.8800    7.4250   57.4130 C.3   295  PRO295      0.1402
     95  C         40.0810    6.4400   58.5620 C.2   295  PRO295      0.2269
     96  O         39.1580    5.7290   58.9150 O.2   295  PRO295     -0.2865
     97  CB        39.3870    8.7800   57.9650 C.3   295  PRO295      0.0296
     98  CG        37.9000    8.6380   57.9060 C.3   295  PRO295      0.0237
     99  CD        37.5300    7.5880   56.8670 C.3   295  PRO295      0.0939
    100  N         29.9930   10.7280   51.2630 N.3   317  ALA317     -0.1231
    101  CA        28.9470    9.7820   50.8970 C.3   317  ALA317      0.1694
    102  C         29.4280    8.3240   51.0380 C.2   317  ALA317      0.2592
    103  O         30.5920    8.0140   50.8520 O.2   317  ALA317     -0.2718
    104  CB        28.4850    9.9680   49.4560 C.3   317  ALA317      0.0304
    105  N         28.4390    7.4800   51.3110 N.am  318  ILE318     -0.1966
    106  CA        28.6880    6.0350   51.3160 C.3   318  ILE318      0.1727
    107  C         28.1170    5.4810   50.0260 C.2   318  ILE318      0.2616
    108  O         27.0010    5.8920   49.6480 O.2   318  ILE318     -0.2715
    109  CB        28.0710    5.3950   52.5680 C.3   318  ILE318      0.0290
    110  CG1       28.9530    5.8520   53.7600 C.3   318  ILE318      0.0022
    111  CG2       28.0390    3.8740   52.5100 C.3   318  ILE318      0.0023
    112  CD1       28.2070    5.5990   55.0480 C.3   318  ILE318      0.0001
    113  N         28.8580    4.6260   49.3270 N.am  319  PHE319     -0.1974
    114  CA        28.2970    3.9320   48.1480 C.3   319  PHE319      0.1639
    115  C         27.8450    4.9030   47.0460 C.2   319  PHE319      0.2290
    116  O         26.7470    4.7560   46.5000 O.2   319  PHE319     -0.2864
    117  CB        27.1170    3.0000   48.5210 C.3   319  PHE319      0.0560
    118  CG        26.7670    1.9500   47.4840 C.ar  319  PHE319     -0.0200
    119  CD1       27.7180    1.1470   46.8790 C.ar  319  PHE319     -0.0042
    120  CD2       25.4530    1.7880   47.0970 C.ar  319  PHE319     -0.0042
    121  CE1       27.3770    0.2090   45.8980 C.ar  319  PHE319     -0.0003
    122  CE2       25.0690    0.8910   46.1160 C.ar  319  PHE319     -0.0003
    123  CZ        26.0360    0.0730   45.5060 C.ar  319  PHE319     -0.0000
@<TRIPOS>BOND
     1    72    71    2
     2    71    70    1
     3    69    70    1
     4   123   121   ar
     5   123   122   ar
     6    70    73    1
     7   121   119   ar
     8   122   120   ar
     9   116   115    2
    10    73    74    1
    11   119   118   ar
    12   115   114    1
    13   120   118   ar
    14    81    79    1
    15   118   117    1
    16    80    79    1
    17     1     2    1
    18     2     5    1
    19     2     3    1
    20    79    76    1
    21   114   117    1
    22   114   113    1
    23     5     6    1
    24    24    23    2
    25     3     4    2
    26    23    22    1
    27   113   107   am
    28   104   101    1
    29    76    75    1
    30    76    77    1
    31    40    38   ar
    32    40    41   ar
    33   108   107    2
    34   107   106    1
    35    30    28   ar
    36    30    29   ar
    37    38    36   ar
    38    41    39   ar
    39    28    26   ar
    40    77    82   am
    41    77    78    2
    42    82    83    1
    43    22    21    1
    44    22    25    1
    45   103   102    2
    46    29    27   ar
    47   101   102    1
    48   101   100    1
    49   102   105   am
    50    31    32    1
    51    26    27   ar
    52    26    25    1
    53    83    84    1
    54   105   106    1
    55   106   109    1
    56     7     8    1
    57    36    37   ar
    58    36    35    1
    59    39    37   ar
    60    12    11    1
    61    35    32    1
    62    32    33    1
    63   111   109    1
    64   109   110    1
    65    11     8    1
    66     8     9    1
    67    84    86   am
    68    84    85    2
    69    33    34    2
    70    86    87    1
    71     9    10    2
    72   110   112    1
    73    92    90    1
    74    87    90    1
    75    87    88    1
    76    90    91    1
    77    59    57   ar
    78    59    60   ar
    79    89    88    2
    80    64    63    2
    81    57    55   ar
    82    88    93   am
    83    67    66    1
    84    53    52    2
    85    60    58   ar
    86    65    66    1
    87    65    62    1
    88    63    62    1
    89    93    99    1
    90    93    94    1
    91    66    68    1
    92    55    54    1
    93    55    56   ar
    94    20    18    1
    95    99    98    1
    96    62    61    1
    97    52    61   am
    98    52    51    1
    99    49    47    1
   100    54    51    1
   101    58    56   ar
   102    94    97    1
   103    94    95    1
   104    98    97    1
   105    51    50    1
   106    18    17    1
   107    18    19    1
   108    48    47    1
   109    17    14    1
   110    47    46    1
   111    95    96    2
   112    46    43    1
   113    13    14    1
   114    14    15    1
   115    43    42    1
   116    43    44    1
   117    16    15    2
   118    44    45    2
