@<TRIPOS>MOLECULE
tmp/1btuA00.pdb
 134 129 0 0 0
SMALL
GASTEIGER

@<TRIPOS>ATOM
      1  N         -0.7170   25.7200   32.1480 N.3    29  THR29      -0.1203
      2  CA        -1.6990   24.7060   32.5400 C.3    29  THR29       0.1994
      3  C         -2.3580   25.0170   33.8940 C.2    29  THR29       0.2618
      4  O         -3.4990   24.5980   34.1030 O.2    29  THR29      -0.2717
      5  CB        -1.0300   23.3180   32.5470 C.3    29  THR29       0.1784
      6  OG1       -2.0110   22.2690   32.7140 O.3    29  THR29      -0.2211
      7  CG2       -0.0640   23.1590   33.7130 C.3    29  THR29       0.0376
      8  N         -1.6650   25.7070   34.7730 N.am   30  CYS30      -0.1969
      9  CA        -2.1700   25.9260   36.1500 C.3    30  CYS30       0.1712
     10  C         -1.5120   27.1140   36.7880 C.2    30  CYS30       0.2296
     11  O         -0.4960   27.6460   36.3530 O.2    30  CYS30      -0.2864
     12  CB        -1.8340   24.7150   37.0380 C.3    30  CYS30       0.0983
     13  SG        -2.9750   23.3100   36.9130 S.3    30  CYS30      -0.0798
     14  N         -3.5620   17.8890   41.3280 N.3    45  HIS45      -0.1241
     15  CA        -4.1190   17.4290   40.0230 C.3    45  HIS45       0.1621
     16  C         -3.4070   18.1480   38.8920 C.2    45  HIS45       0.2264
     17  O         -3.4510   17.6950   37.7390 O.2    45  HIS45      -0.2867
     18  CB        -5.5790   17.5200   40.0180 C.3    45  HIS45       0.0745
     19  CG        -6.2720   18.7280   39.5980 C.ar   45  HIS45       0.0817
     20  ND1       -6.8780   19.6380   40.5010 N.ar   45  HIS45      -0.2268
     21  CD2       -6.5790   19.2610   38.3710 C.ar   45  HIS45       0.1154
     22  CE1       -7.4490   20.6110   39.8680 C.ar   45  HIS45       0.1986
     23  NE2       -7.2980   20.4190   38.5370 N.ar   45  HIS45      -0.2212
     24  N         -0.5560   15.7940   37.7120 N.3    48  ASP48      -0.1239
     25  CA        -0.9370   14.4020   37.4680 C.3    48  ASP48       0.1674
     26  C         -0.2900   13.8190   36.2250 C.2    48  ASP48       0.2266
     27  O          0.0830   12.6350   36.1870 O.2    48  ASP48      -0.2867
     28  CB        -2.4710   14.3620   37.3310 C.3    48  ASP48       0.1410
     29  CG        -3.1830   14.0450   38.6120 C.2    48  ASP48       0.3668
     30  OD1       -2.5460   13.5550   39.5750 O.co2  48  ASP48      -0.2456
     31  OD2       -4.4380   14.2360   38.6340 O.co2  48  ASP48      -0.2456
     32  N         -3.4700   11.9830   48.1100 N.3    83  TRP83      -0.1241
     33  CA        -4.1500   12.4090   46.8840 C.3    83  TRP83       0.1605
     34  C         -4.5140   11.2220   45.9820 C.2    83  TRP83       0.2264
     35  O         -3.6680   10.3250   45.8390 O.2    83  TRP83      -0.2867
     36  CB        -3.2400   13.3670   46.0930 C.3    83  TRP83       0.0550
     37  CG        -3.7720   13.6380   44.7060 C.ar   83  TRP83       0.0003
     38  CD1       -3.1500   13.2530   43.5490 C.ar   83  TRP83       0.0946
     39  CD2       -4.9550   14.3020   44.3430 C.ar   83  TRP83       0.0152
     40  NE1       -3.9050   13.6500   42.4580 N.ar   83  TRP83      -0.2442
     41  CE2       -5.0280   14.3060   42.9220 C.ar   83  TRP83       0.0810
     42  CE3       -6.0070   14.9210   45.0410 C.ar   83  TRP83       0.0012
     43  CZ2       -6.0670   14.8800   42.2260 C.ar   83  TRP83       0.0191
     44  CZ3       -7.0590   15.5030   44.3250 C.ar   83  TRP83       0.0001
     45  CH2       -7.0820   15.4800   42.9120 C.ar   83  TRP83       0.0015
     46  N         -6.2950   10.8500   42.0940 N.3    85  THR85      -0.1218
     47  CA        -6.8110   11.5850   40.9330 C.3    85  THR85       0.1862
     48  C         -8.2140   11.1990   40.5330 C.2    85  THR85       0.2287
     49  O         -8.9110   12.0110   39.8780 O.2    85  THR85      -0.2866
     50  CB        -5.8330   11.4370   39.7510 C.3    85  THR85       0.1770
     51  OG1       -4.5830   12.0800   40.1260 O.3    85  THR85      -0.2211
     52  CG2       -6.3320   12.1370   38.5180 C.3    85  THR85       0.0375
     53  N        -11.3700   13.6620   43.3820 N.3    88  VAL88      -0.1245
     54  CA       -10.9630   15.0060   43.8360 C.3    88  VAL88       0.1561
     55  C        -11.7650   15.4210   45.0630 C.2    88  VAL88       0.2260
     56  O        -11.3080   16.2920   45.8370 O.2    88  VAL88      -0.2867
     57  CB       -11.1290   16.0250   42.7030 C.3    88  VAL88       0.0252
     58  CG1      -12.5820   16.3540   42.4270 C.3    88  VAL88       0.0019
     59  CG2      -10.4240   17.3460   43.0250 C.3    88  VAL88       0.0019
     60  N        -13.7350   30.6380   39.4130 N.3   183  GLY183     -0.1210
     61  CA       -12.5530   30.0650   38.7720 C.3   183  GLY183      0.1956
     62  C        -12.9970   29.3050   37.5070 C.2   183  GLY183      0.2612
     63  O        -14.1830   29.0380   37.3840 O.2   183  GLY183     -0.2717
     64  N        -12.0200   28.9800   36.6660 N.am  184  CYS184     -0.1956
     65  CA       -12.3020   28.1410   35.4930 C.3   184  CYS184      0.1843
     66  C        -11.0910   27.3390   35.1030 C.2   184  CYS184      0.2625
     67  O        -10.0420   27.4930   35.7560 O.2   184  CYS184     -0.2714
     68  CB       -12.9400   28.9770   34.3950 C.3   184  CYS184      0.0997
     69  SG       -14.0570   28.1240   33.1950 S.3   184  CYS184     -0.0797
     70  N        -11.2070   26.4790   34.0910 N.am  185  GLN185     -0.1963
     71  CA       -10.0860   25.6320   33.7090 C.3   185  GLN185      0.1733
     72  C         -8.8600   26.4480   33.3940 C.2   185  GLN185      0.2617
     73  O         -8.9410   27.4910   32.7110 O.2   185  GLN185     -0.2715
     74  CB       -10.4870   24.7810   32.4810 C.3   185  GLN185      0.0408
     75  CG       -11.2870   23.5380   32.8370 C.3   185  GLN185      0.0908
     76  CD       -12.7080   23.8600   33.2380 C.2   185  GLN185      0.2608
     77  OE1      -13.2670   24.9030   32.9020 O.2   185  GLN185     -0.2717
     78  NE2      -13.3720   22.9640   33.9870 N.am  185  GLN185     -0.0878
     79  N         -7.7210   26.0590   34.0060 N.am  186  GLY186     -0.1940
     80  CA        -6.4940   26.8200   33.8730 C.3   186  GLY186      0.2014
     81  C         -6.2030   27.6630   35.1550 C.2   186  GLY186      0.2639
     82  O         -5.0760   28.1550   35.2310 O.2   186  GLY186     -0.2714
     83  N         -7.1910   27.8000   36.0050 N.am  187  ASP187     -0.1957
     84  CA        -6.9490   28.5490   37.2710 C.3   187  ASP187      0.1840
     85  C         -6.5020   27.6050   38.3700 C.2   187  ASP187      0.2622
     86  O         -6.0700   28.0780   39.4020 O.2   187  ASP187     -0.2715
     87  CB        -8.2020   29.2770   37.7530 C.3   187  ASP187      0.1450
     88  CG        -8.5290   30.4990   36.9080 C.2   187  ASP187      0.3671
     89  OD1       -7.5700   31.1930   36.5220 O.co2 187  ASP187     -0.2456
     90  OD2       -9.7380   30.6700   36.6690 O.co2 187  ASP187     -0.2456
     91  N         -6.6250   26.2940   38.1550 N.am  188  SER188     -0.1950
     92  CA        -6.3260   25.3500   39.2300 C.3   188  SER188      0.1924
     93  C         -4.9110   25.5040   39.7190 C.2   188  SER188      0.2314
     94  O         -3.9700   25.8650   39.0080 O.2   188  SER188     -0.2863
     95  CB        -6.4860   23.8960   38.7490 C.3   188  SER188      0.2116
     96  OG        -7.7660   23.7800   38.1680 O.3   188  SER188     -0.2180
     97  N         -6.7400   26.6080   44.3140 N.3   206  THR206     -0.1203
     98  CA        -7.9070   26.2960   43.4630 C.3   206  THR206      0.1994
     99  C         -7.9590   24.8480   43.0190 C.2   206  THR206      0.2619
    100  O         -6.9540   24.3530   42.5510 O.2   206  THR206     -0.2717
    101  CB        -7.8490   27.2310   42.2350 C.3   206  THR206      0.1784
    102  OG1       -7.7060   28.5780   42.7660 O.3   206  THR206     -0.2211
    103  CG2       -9.1340   27.1740   41.4250 C.3   206  THR206      0.0376
    104  N         -9.1330   24.2170   43.2180 N.am  207  SER207     -0.1937
    105  CA        -9.2120   22.7730   42.9660 C.3   207  SER207      0.2055
    106  C        -10.3150   22.3820   42.0290 C.2   207  SER207      0.2643
    107  O        -10.0450   21.6430   41.0570 O.2   207  SER207     -0.2714
    108  CB        -9.4250   22.0380   44.3250 C.3   207  SER207      0.2130
    109  OG        -9.4580   20.5980   44.1270 O.3   207  SER207     -0.2179
    110  N        -11.5630   22.7740   42.2410 N.am  208  PHE208     -0.1959
    111  CA       -12.5800   22.2950   41.2750 C.3   208  PHE208      0.1771
    112  C        -13.7780   23.2080   41.1670 C.2   208  PHE208      0.2619
    113  O        -14.0030   24.0910   42.0160 O.2   208  PHE208     -0.2715
    114  CB       -12.9640   20.8760   41.6370 C.3   208  PHE208      0.0574
    115  CG       -13.6690   20.5890   42.9480 C.ar  208  PHE208     -0.0200
    116  CD1      -15.0400   20.6480   43.0780 C.ar  208  PHE208     -0.0042
    117  CD2      -12.8910   20.2180   44.0380 C.ar  208  PHE208     -0.0042
    118  CE1      -15.6710   20.3340   44.2750 C.ar  208  PHE208     -0.0003
    119  CE2      -13.4980   19.8950   45.2520 C.ar  208  PHE208     -0.0003
    120  CZ       -14.8830   19.9300   45.3710 C.ar  208  PHE208     -0.0000
    121  N        -14.5530   22.9870   40.1030 N.am  209  VAL209     -0.1977
    122  CA       -15.8170   23.6020   39.7800 C.3   209  VAL209      0.1596
    123  C        -16.7850   22.4920   39.3250 C.2   209  VAL209      0.2287
    124  O        -16.4260   21.3420   39.1690 O.2   209  VAL209     -0.2864
    125  CB       -15.7710   24.6810   38.7000 C.3   209  VAL209      0.0276
    126  CG1      -15.0700   25.9450   39.1800 C.3   209  VAL209      0.0022
    127  CG2      -15.0030   24.1610   37.4540 C.3   209  VAL209      0.0022
    128  N        -16.7080   28.0890   43.5600 N.3   221  THR221     -0.1218
    129  CA       -15.4170   27.4630   43.2580 C.3   221  THR221      0.1862
    130  C        -14.8770   26.8070   44.5230 C.2   221  THR221      0.2287
    131  O        -15.0910   27.3860   45.6210 O.2   221  THR221     -0.2866
    132  CB       -14.4280   28.5020   42.7140 C.3   221  THR221      0.1770
    133  OG1      -15.0740   29.1870   41.5950 O.3   221  THR221     -0.2211
    134  CG2      -13.1210   27.8880   42.2180 C.3   221  THR221      0.0375
@<TRIPOS>BOND
     1     1     2    1
     2    74    75    1
     3    74    71    1
     4     2     5    1
     5     2     3    1
     6     5     6    1
     7     5     7    1
     8    73    72    2
     9    75    76    1
    10    77    76    2
    11    69    68    1
    12    76    78   am
    13    72    71    1
    14    72    79   am
    15    71    70    1
    16    80    79    1
    17    80    81    1
    18     3     4    2
    19     3     8   am
    20    70    66   am
    21    68    65    1
    22     8     9    1
    23    66    65    1
    24    66    67    2
    25    81    82    2
    26    81    83   am
    27    65    64    1
    28    83    84    1
    29     9    10    1
    30     9    12    1
    31    27    26    2
    32    26    25    1
    33    11    10    2
    34    89    88   ar
    35    64    62   am
    36    90    88   ar
    37    88    87    1
    38    13    12    1
    39    84    87    1
    40    84    85    1
    41    28    25    1
    42    28    29    1
    43    63    62    2
    44   127   125    1
    45    25    24    1
    46    62    61    1
    47    17    16    2
    48    91    85   am
    49    91    92    1
    50    96    95    1
    51    85    86    2
    52    21    23   ar
    53    21    19   ar
    54    52    50    1
    55    23    22   ar
    56    29    31   ar
    57    29    30   ar
    58   125   126    1
    59   125   122    1
    60    95    92    1
    61    61    60    1
    62    16    15    1
    63    94    93    2
    64   124   123    2
    65    92    93    1
    66   123   122    1
    67    19    18    1
    68    19    20   ar
    69    50    51    1
    70    50    47    1
    71   122   121    1
    72    22    20   ar
    73    49    48    2
    74    18    15    1
    75    15    14    1
    76   121   112   am
    77    48    47    1
    78    47    46    1
    79   107   106    2
    80   112   111    1
    81   112   113    2
    82   111   114    1
    83   111   110    1
    84   103   101    1
    85   133   132    1
    86   114   115    1
    87   106   110   am
    88   106   105    1
    89   134   132    1
    90    43    45   ar
    91    43    41   ar
    92   101   102    1
    93   101    98    1
    94    58    57    1
    95    40    41   ar
    96    40    38   ar
    97   100    99    2
    98    57    59    1
    99    57    54    1
   100   132   129    1
   101    45    44   ar
   102    41    39   ar
   103   115   116   ar
   104   115   117   ar
   105   105   104    1
   106   105   108    1
   107    99   104   am
   108    99    98    1
   109   116   118   ar
   110   129   128    1
   111   129   130    1
   112    53    54    1
   113    98    97    1
   114    38    37   ar
   115    54    55    1
   116   117   119   ar
   117   109   108    1
   118   118   120   ar
   119    44    42   ar
   120    39    37   ar
   121    39    42   ar
   122   130   131    2
   123    37    36    1
   124    55    56    2
   125   119   120   ar
   126    35    34    2
   127    34    33    1
   128    36    33    1
   129    33    32    1
