@<TRIPOS>MOLECULE
tmp/1btxA00.pdb
 136 133 0 0 0
SMALL
GASTEIGER

@<TRIPOS>ATOM
      1  N         20.1880   12.3290   25.2460 N.3    40  HIS40      -0.1241
      2  CA        21.0990   11.2100   25.2670 C.3    40  HIS40       0.1621
      3  C         22.1770   11.3670   26.3320 C.2    40  HIS40       0.2264
      4  O         22.9130   10.4090   26.5960 O.2    40  HIS40      -0.2867
      5  CB        21.7150   11.0150   23.8560 C.3    40  HIS40       0.0745
      6  CG        22.8750   11.8890   23.4120 C.ar   40  HIS40       0.0817
      7  ND1       22.8510   12.9300   22.5840 N.ar   40  HIS40      -0.2268
      8  CD2       24.1970   11.6710   23.7870 C.ar   40  HIS40       0.1154
      9  CE1       24.1150   13.3440   22.4530 C.ar   40  HIS40       0.1986
     10  NE2       24.8970   12.5800   23.1750 N.ar   40  HIS40      -0.2212
     11  N         17.2040    9.3470   17.4760 N.3    81  LEU81      -0.1245
     12  CA        17.6260   10.5590   18.2010 C.3    81  LEU81       0.1561
     13  C         16.7110   11.7560   17.9330 C.2    81  LEU81       0.2260
     14  O         17.0310   12.9180   18.2190 O.2    81  LEU81      -0.2867
     15  CB        19.0970   10.8910   17.8530 C.3    81  LEU81       0.0270
     16  CG        20.1280    9.8440   18.2900 C.3    81  LEU81       0.0019
     17  CD1       21.4730   10.2490   17.7510 C.3    81  LEU81       0.0001
     18  CD2       20.1740    9.7190   19.8050 C.3    81  LEU81       0.0001
     19  N         22.6440   13.2220    5.0460 N.3   152  TYR152     -0.1241
     20  CA        22.1580   12.1280    5.8630 C.3   152  TYR152      0.1605
     21  C         20.8170   11.6370    5.3350 C.2   152  TYR152      0.2264
     22  O         19.7790   11.8240    6.0050 O.2   152  TYR152     -0.2867
     23  CB        22.0040   12.5660    7.3350 C.3   152  TYR152      0.0534
     24  CG        23.3250   12.8680    8.0560 C.ar  152  TYR152     -0.0201
     25  CD1       24.1670   11.8390    8.4360 C.ar  152  TYR152     -0.0009
     26  CD2       23.7190   14.1650    8.2830 C.ar  152  TYR152     -0.0009
     27  CE1       25.3840   12.1020    9.0260 C.ar  152  TYR152      0.0417
     28  CE2       24.9430   14.4340    8.8810 C.ar  152  TYR152      0.0417
     29  CZ        25.7700   13.4000    9.2490 C.ar  152  TYR152      0.1957
     30  OH        26.9660   13.6390    9.9050 O.3   152  TYR152     -0.2866
     31  N         17.4710   10.4600    7.4590 N.3   155  GLN155     -0.1245
     32  CA        17.7820   10.5610    8.8660 C.3   155  GLN155      0.1566
     33  C         17.4910   11.9390    9.4450 C.2   155  GLN155      0.2260
     34  O         17.4320   12.0710   10.6660 O.2   155  GLN155     -0.2867
     35  CB        19.2580   10.2130    9.0490 C.3   155  GLN155      0.0367
     36  CG        19.6440    8.7700    8.7050 C.3   155  GLN155      0.0905
     37  CD        21.1010    8.6020    8.3100 C.2   155  GLN155      0.2608
     38  OE1       21.9890    8.5530    9.1600 O.2   155  GLN155     -0.2717
     39  NE2       21.4330    8.4950    7.0310 N.am  155  GLN155     -0.0878
     40  N         34.4080   20.6220   13.2970 N.3   171  ASP171     -0.1225
     41  CA        33.1710   19.9920   13.7500 C.3   171  ASP171      0.1805
     42  C         33.1110   19.8440   15.2710 C.2   171  ASP171      0.2598
     43  O         34.1070   19.9640   15.9840 O.2   171  ASP171     -0.2718
     44  CB        33.0270   18.5770   13.1150 C.3   171  ASP171      0.1424
     45  CG        31.6100   17.9770   12.9690 C.2   171  ASP171      0.3668
     46  OD1       30.6510   18.5450   13.4780 O.co2 171  ASP171     -0.2456
     47  OD2       31.4520   16.9240   12.3460 O.co2 171  ASP171     -0.2456
     48  N         31.9230   19.5980   15.8240 N.am  172  SER172     -0.1938
     49  CA        31.7710   19.1810   17.2010 C.3   172  SER172      0.2055
     50  C         32.1390   17.6750   17.2730 C.2   172  SER172      0.2643
     51  O         32.1740   16.9820   16.2500 O.2   172  SER172     -0.2714
     52  CB        30.3190   19.4650   17.5850 C.3   172  SER172      0.2130
     53  OG        29.3390   18.8800   16.7080 O.3   172  SER172     -0.2179
     54  N         32.4170   17.0710   18.4180 N.am  173  CYS173     -0.1953
     55  CA        32.8410   15.6760   18.4320 C.3   173  CYS173      0.1843
     56  C         32.5010   15.0920   19.7970 C.2   173  CYS173      0.2625
     57  O         31.8850   15.7850   20.6200 O.2   173  CYS173     -0.2714
     58  CB        34.3580   15.5970   18.1490 C.3   173  CYS173      0.0997
     59  SG        35.0410   13.9760   17.6850 S.3   173  CYS173     -0.0797
     60  N         32.8450   13.8220   20.0800 N.am  174  GLN174     -0.1963
     61  CA        32.5760   13.1660   21.3580 C.3   174  GLN174      0.1733
     62  C         33.1170   13.9910   22.5020 C.2   174  GLN174      0.2616
     63  O         34.2830   14.3960   22.5780 O.2   174  GLN174     -0.2715
     64  CB        33.2250   11.7530   21.4290 C.3   174  GLN174      0.0408
     65  CG        32.3570   10.6970   20.7770 C.3   174  GLN174      0.0908
     66  CD        32.2240   10.8810   19.2700 C.2   174  GLN174      0.2608
     67  OE1       33.2220   11.1310   18.5860 O.2   174  GLN174     -0.2717
     68  NE2       31.0320   10.7940   18.6880 N.am  174  GLN174     -0.0878
     69  N         32.1510   14.3280   23.3150 N.am  175  GLY175     -0.1955
     70  CA        32.3990   15.1070   24.5040 C.3   175  GLY175      0.1869
     71  C         31.7400   16.4800   24.3830 C.2   175  GLY175      0.2309
     72  O         31.7050   17.3120   25.2950 O.2   175  GLY175     -0.2863
     73  N         28.5560   16.7050   23.2570 N.3   177  SER177     -0.1217
     74  CA        27.1160   16.4970   23.3170 C.3   177  SER177      0.1889
     75  C         26.4150   17.2440   24.4580 C.2   177  SER177      0.2288
     76  O         26.9180   17.3840   25.5780 O.2   177  SER177     -0.2866
     77  CB        26.8050   15.0170   23.4260 C.3   177  SER177      0.2089
     78  OG        27.1110   14.1490   22.3360 O.3   177  SER177     -0.2183
     79  N         24.2640   20.2360   20.4790 N.3   191  VAL191     -0.1231
     80  CA        25.1400   19.2030   19.9190 C.3   191  VAL191      0.1692
     81  C         24.5000   17.8030   20.1440 C.2   191  VAL191      0.2593
     82  O         24.2480   17.2910   21.2530 O.2   191  VAL191     -0.2718
     83  CB        26.5920   19.2850   20.5690 C.3   191  VAL191      0.0266
     84  CG1       27.4600   18.2890   19.8030 C.3   191  VAL191      0.0020
     85  CG2       27.2780   20.6790   20.4700 C.3   191  VAL191      0.0020
     86  N         24.2190   17.1550   19.0260 N.am  192  SER192     -0.1938
     87  CA        23.4820   15.9170   19.0450 C.3   192  SER192      0.2055
     88  C         24.2510   14.7180   18.5000 C.2   192  SER192      0.2643
     89  O         24.5730   13.7990   19.2770 O.2   192  SER192     -0.2714
     90  CB        22.1500   16.1770   18.2760 C.3   192  SER192      0.2130
     91  OG        21.2450   15.0890   18.4370 O.3   192  SER192     -0.2179
     92  N         24.5570   14.6600   17.2080 N.am  193  TRP193     -0.1959
     93  CA        25.2090   13.5020   16.6580 C.3   193  TRP193      0.1771
     94  C         25.8110   13.7860   15.2750 C.2   193  TRP193      0.2620
     95  O         25.7030   14.9090   14.7500 O.2   193  TRP193     -0.2715
     96  CB        24.1860   12.3790   16.5970 C.3   193  TRP193      0.0590
     97  CG        23.0720   12.5870   15.5900 C.ar  193  TRP193      0.0006
     98  CD1       21.9430   13.2760   15.9100 C.ar  193  TRP193      0.0946
     99  CD2       23.0640   12.0840   14.3240 C.ar  193  TRP193      0.0152
    100  NE1       21.2020   13.2030   14.8430 N.ar  193  TRP193     -0.2442
    101  CE2       21.8250   12.5060   13.8760 C.ar  193  TRP193      0.0810
    102  CE3       23.9180   11.3520   13.5220 C.ar  193  TRP193      0.0012
    103  CZ2       21.3860   12.1940   12.5950 C.ar  193  TRP193      0.0191
    104  CZ3       23.4900   11.0450   12.2480 C.ar  193  TRP193      0.0001
    105  CH2       22.2400   11.4610   11.7870 C.ar  193  TRP193      0.0015
    106  N         26.4530   12.7930   14.6580 N.am  194  GLY194     -0.1940
    107  CA        26.9790   12.9940   13.3200 C.3   194  GLY194      0.2014
    108  C         27.7180   11.7460   12.9070 C.2   194  GLY194      0.2640
    109  O         27.9030   10.8800   13.7490 O.2   194  GLY194     -0.2714
    110  N         28.1520   11.5790   11.6750 N.am  195  SER195     -0.1935
    111  CA        28.9100   10.3860   11.3150 C.3   195  SER195      0.2055
    112  C         30.3760   10.6600   11.6610 C.2   195  SER195      0.2644
    113  O         31.0990   11.3070   10.8980 O.2   195  SER195     -0.2714
    114  CB        28.7730   10.0970    9.8270 C.3   195  SER195      0.2130
    115  OG        27.4270    9.8170    9.4820 O.3   195  SER195     -0.2179
    116  N         30.8410   10.2560   12.8500 N.am  196  GLY196     -0.1939
    117  CA        32.1790   10.6290   13.2800 C.3   196  GLY196      0.2014
    118  C         32.2100   12.1500   13.4810 C.2   196  GLY196      0.2639
    119  O         31.1520   12.8090   13.6350 O.2   196  GLY196     -0.2714
    120  N         33.4040   12.7430   13.3900 N.am  197  CYS197     -0.1967
    121  CA        33.5940   14.1830   13.5680 C.3   197  CYS197      0.1712
    122  C         34.4140   14.6520   12.4030 C.2   197  CYS197      0.2296
    123  O         35.3430   13.9550   11.9960 O.2   197  CYS197     -0.2864
    124  CB        34.3870   14.4820   14.8130 C.3   197  CYS197      0.0983
    125  SG        33.8470   13.4260   16.1740 S.3   197  CYS197     -0.0798
    126  N         28.0100   18.0820   11.5300 N.3   204  GLY204     -0.1210
    127  CA        27.2960   17.7040   12.7310 C.3   204  GLY204      0.1956
    128  C         25.8120   17.9800   12.5300 C.2   204  GLY204      0.2611
    129  O         25.4410   18.8970   11.7780 O.2   204  GLY204     -0.2717
    130  N         24.9930   17.1980   13.2390 N.am  205  VAL205     -0.1979
    131  CA        23.5510   17.3770   13.2920 C.3   205  VAL205      0.1595
    132  C         23.2160   17.8600   14.6950 C.2   205  VAL205      0.2287
    133  O         23.8000   17.4110   15.6980 O.2   205  VAL205     -0.2864
    134  CB        22.8290   16.0440   12.9870 C.3   205  VAL205      0.0276
    135  CG1       21.2960   16.1360   13.1270 C.3   205  VAL205      0.0022
    136  CG2       23.2570   15.6530   11.5910 C.3   205  VAL205      0.0022
@<TRIPOS>BOND
     1    19    20    1
     2    21    20    1
     3    21    22    2
     4    20    23    1
     5    39    37   am
     6    23    24    1
     7    31    32    1
     8    24    26   ar
     9    24    25   ar
    10    26    28   ar
    11    37    36    1
    12    37    38    2
    13    25    27   ar
    14    36    35    1
    15    32    35    1
    16    32    33    1
    17    28    29   ar
    18    27    29   ar
    19    29    30    1
    20    33    34    2
    21   115   114    1
    22   114   111    1
    23   113   112    2
    24   111   112    1
    25   111   110    1
    26   126   127    1
    27   136   134    1
    28   112   116   am
    29   110   108   am
    30   129   128    2
    31   105   104   ar
    32   105   103   ar
    33   123   122    2
    34   104   102   ar
    35    47    45   ar
    36   122   121    1
    37   128   127    1
    38   128   130   am
    39   103   101   ar
    40   116   117    1
    41   108   107    1
    42   108   109    2
    43    45    44    1
    44    45    46   ar
    45   134   135    1
    46   134   131    1
    47    44    41    1
    48   130   131    1
    49   117   118    1
    50   131   132    1
    51    40    41    1
    52   107   106    1
    53   120   118   am
    54   120   121    1
    55   118   119    2
    56   102    99   ar
    57   121   124    1
    58    41    42    1
    59   101    99   ar
    60   101   100   ar
    61    99    97   ar
    62   106    94   am
    63   132   133    2
    64    95    94    2
    65   124   125    1
    66   100    98   ar
    67    42    48   am
    68    42    43    2
    69    94    93    1
    70    97    98   ar
    71    97    96    1
    72    48    49    1
    73   125    59    1
    74    51    50    2
    75    96    93    1
    76    93    92    1
    77    53    52    1
    78    49    50    1
    79    49    52    1
    80    92    88   am
    81    50    54   am
    82    11    12    1
    83    59    58    1
    84    17    16    1
    85    15    12    1
    86    15    16    1
    87    13    12    1
    88    13    14    2
    89    58    55    1
    90    90    91    1
    91    90    87    1
    92    16    18    1
    93    54    55    1
    94    55    56    1
    95    88    87    1
    96    88    89    2
    97    67    66    2
    98    68    66   am
    99    86    87    1
   100    86    81   am
   101    66    65    1
   102    56    60   am
   103    56    57    2
   104    84    83    1
   105    80    81    1
   106    80    79    1
   107    80    83    1
   108    60    61    1
   109    81    82    2
   110    85    83    1
   111    65    64    1
   112    61    64    1
   113    61    62    1
   114    78    77    1
   115     9     7   ar
   116     9    10   ar
   117    62    63    2
   118    62    69   am
   119     7     6   ar
   120    10     8   ar
   121    73    74    1
   122    69    70    1
   123    74    77    1
   124    74    75    1
   125     6     8   ar
   126     6     5    1
   127     5     2    1
   128    71    70    1
   129    71    72    2
   130    75    76    2
   131     1     2    1
   132     2     3    1
   133     3     4    2
