@<TRIPOS>MOLECULE
tmp/1bu5A00.pdb
 127 125 0 0 0
SMALL
GASTEIGER

@<TRIPOS>ATOM
      1  N         10.8820    4.9080   13.1170 N.3    11  THR11      -0.1274
      2  CA         9.6910    4.9830   12.2770 C.3    11  THR11       0.1548
      3  C          9.5690    3.7410   11.4170 C.3    11  THR11       0.2036
      4  O          8.5410    3.7000   10.7220 O.3    11  THR11      -0.2187
      5  CB         9.6410    6.2120   11.3530 C.3    11  THR11       0.1721
      6  OG1       10.6850    6.1640   10.3650 O.3    11  THR11      -0.2215
      7  CG2        9.9020    7.5020   12.0910 C.3    11  THR11       0.0371
      8  N         11.7610    2.9690    8.9140 N.3    13  ASN13      -0.1296
      9  CA        12.5820    3.0690    7.7000 C.3    13  ASN13       0.1339
     10  C         13.9130    2.3360    7.8420 C.3    13  ASN13       0.2014
     11  O         14.1880    1.6450    6.8390 O.3    13  ASN13      -0.2188
     12  CB        12.8740    4.5340    7.3480 C.3    13  ASN13       0.1102
     13  CG        11.5780    5.1530    6.7810 C.2    13  ASN13       0.2623
     14  OD1       10.6520    4.4570    6.3400 O.2    13  ASN13      -0.2716
     15  ND2       11.5830    6.4700    6.8250 N.am   13  ASN13      -0.0877
     16  N         19.4450    5.7000   12.4820 N.3    57  SER57      -0.1202
     17  CA        18.9280    6.9760   12.0190 C.3    57  SER57       0.2020
     18  C         19.4760    8.1050   12.8810 C.2    57  SER57       0.2619
     19  O         20.0450    7.9430   13.9370 O.2    57  SER57      -0.2717
     20  CB        17.3730    6.8920   11.9310 C.3    57  SER57       0.2103
     21  OG        16.9430    6.5770   13.2870 O.3    57  SER57      -0.2182
     22  N         19.4310    9.3810   12.4600 N.am   58  THR58      -0.1938
     23  CA        20.0080   10.5480   13.1670 C.3    58  THR58       0.2028
     24  C         18.9100   11.4810   13.6400 C.2    58  THR58       0.2642
     25  O         17.9630   11.7480   12.8900 O.2    58  THR58      -0.2714
     26  CB        20.8030   11.3920   12.1270 C.3    58  THR58       0.1808
     27  OG1       21.6240   10.4690   11.3740 O.3    58  THR58      -0.2208
     28  CG2       21.6820   12.4140   12.7410 C.3    58  THR58       0.0379
     29  N         18.9660   11.9320   14.8510 N.am   59  TRP59      -0.1959
     30  CA        17.9540   12.7890   15.4860 C.3    59  TRP59       0.1771
     31  C         18.6860   13.9600   16.1120 C.2    59  TRP59       0.2620
     32  O         19.8310   14.2930   15.7840 O.2    59  TRP59      -0.2715
     33  CB        17.2510   11.9300   16.6160 C.3    59  TRP59       0.0590
     34  CG        16.6010   10.7580   15.9090 C.ar   59  TRP59       0.0006
     35  CD1       17.1850    9.5200   15.7660 C.ar   59  TRP59       0.0946
     36  CD2       15.3600   10.7030   15.1950 C.ar   59  TRP59       0.0152
     37  NE1       16.3740    8.7130   15.0050 N.ar   59  TRP59      -0.2442
     38  CE2       15.2420    9.4280   14.6290 C.ar   59  TRP59       0.0810
     39  CE3       14.3370   11.6190   14.9700 C.ar   59  TRP59       0.0012
     40  CZ2       14.1200    9.0270   13.9100 C.ar   59  TRP59       0.0191
     41  CZ3       13.2580   11.2250   14.2600 C.ar   59  TRP59       0.0001
     42  CH2       13.1380    9.9580   13.6960 C.ar   59  TRP59       0.0015
     43  N         18.0190   14.5810   17.0730 N.am   60  GLY60      -0.1940
     44  CA        18.6990   15.6770   17.7880 C.3    60  GLY60       0.2014
     45  C         18.1800   17.0120   17.3350 C.2    60  GLY60       0.2638
     46  O         17.8310   17.1830   16.1730 O.2    60  GLY60      -0.2714
     47  N         18.1100   17.9480   18.2750 N.am   61  ASP61      -0.1971
     48  CA        17.6160   19.3010   18.0470 C.3    61  ASP61       0.1709
     49  C         18.6370   20.1710   17.3350 C.2    61  ASP61       0.2293
     50  O         18.2200   20.8910   16.4030 O.2    61  ASP61      -0.2864
     51  CB        17.1270   19.9640   19.3390 C.3    61  ASP61       0.1436
     52  CG        15.8730   19.2840   19.8770 C.2    61  ASP61       0.3671
     53  OD1       15.3070   18.4080   19.1710 O.co2  61  ASP61      -0.2456
     54  OD2       15.4840   19.6440   21.0190 O.co2  61  ASP61      -0.2456
     55  N         22.3690   19.2270   17.6920 N.3    63  SER63      -0.1202
     56  CA        23.5770   18.3890   17.5850 C.3    63  SER63       0.2020
     57  C         23.1120   17.1300   16.8500 C.2    63  SER63       0.2618
     58  O         21.9020   16.9320   16.7430 O.2    63  SER63      -0.2717
     59  CB        24.0840   18.0600   18.9790 C.3    63  SER63       0.2103
     60  OG        25.4640   17.7660   19.1190 O.3    63  SER63      -0.2182
     61  N         24.0420   16.3140   16.3820 N.am   64  ILE64      -0.1979
     62  CA        23.5430   15.0720   15.7640 C.3    64  ILE64       0.1595
     63  C         23.4650   14.0620   16.9100 C.2    64  ILE64       0.2287
     64  O         24.3860   13.8310   17.7250 O.2    64  ILE64      -0.2864
     65  CB        24.3990   14.7640   14.5440 C.3    64  ILE64       0.0276
     66  CG1       25.2110   13.4810   14.6820 C.3    64  ILE64       0.0022
     67  CG2       25.3090   15.9490   14.2050 C.3    64  ILE64       0.0022
     68  CD1       26.2780   13.4480   13.6040 C.3    64  ILE64       0.0001
     69  N         18.9760    5.7660    7.5000 N.3    92  CYS92      -0.1221
     70  CA        18.0020    6.6120    6.7850 C.3    92  CYS92       0.1808
     71  C         18.0430    8.0170    7.3730 C.2    92  CYS92       0.2602
     72  O         18.2940    8.1680    8.5670 O.2    92  CYS92      -0.2717
     73  CB        16.5610    6.1030    6.8660 C.3    92  CYS92       0.0970
     74  SG        16.3940    4.5510    5.9750 S.3    92  CYS92      -0.0800
     75  N         17.7950    9.0450    6.5590 N.am   93  GLY93      -0.1942
     76  CA        17.8370   10.4050    7.1280 C.3    93  GLY93       0.2014
     77  C         17.0730   11.3060    6.1190 C.2    93  GLY93       0.2638
     78  O         16.2820   10.8480    5.3370 O.2    93  GLY93      -0.2714
     79  N         17.3950   12.5830    6.2030 N.am   94  ASP94      -0.1971
     80  CA        16.6590   13.5390    5.3410 C.3    94  ASP94       0.1709
     81  C         17.6080   14.6740    5.0010 C.2    94  ASP94       0.2293
     82  O         18.1510   15.2620    5.9580 O.2    94  ASP94      -0.2864
     83  CB        15.5720   14.0470    6.2840 C.3    94  ASP94       0.1436
     84  CG        14.6110   15.0910    5.8060 C.2    94  ASP94       0.3671
     85  OD1       15.0130   15.9820    5.0310 O.co2  94  ASP94      -0.2456
     86  OD2       13.4430   15.0420    6.2530 O.co2  94  ASP94      -0.2456
     87  N         18.1870   18.3720    6.6250 N.3    97  TYR97      -0.1241
     88  CA        18.9650   18.6060    7.8130 C.3    97  TYR97       0.1605
     89  C         20.4040   18.8810    7.4570 C.2    97  TYR97       0.2264
     90  O         20.9370   18.4120    6.4490 O.2    97  TYR97      -0.2867
     91  CB        18.9570   17.3740    8.7780 C.3    97  TYR97       0.0534
     92  CG        17.5690   17.2850    9.3760 C.ar   97  TYR97      -0.0201
     93  CD1       17.3230   18.0360   10.5460 C.ar   97  TYR97      -0.0009
     94  CD2       16.5320   16.6060    8.7880 C.ar   97  TYR97      -0.0009
     95  CE1       16.0610   18.0380   11.1180 C.ar   97  TYR97       0.0417
     96  CE2       15.2690   16.6160    9.3590 C.ar   97  TYR97       0.0417
     97  CZ        15.0570   17.3200   10.5330 C.ar   97  TYR97       0.1957
     98  OH        13.8060   17.3240   11.0920 O.3    97  TYR97      -0.2866
     99  N         23.2910   17.7410    8.8990 N.3    99  TYR99      -0.1227
    100  CA        24.1270   16.5680    8.9170 C.3    99  TYR99       0.1736
    101  C         23.3140   15.3680    8.3910 C.2    99  TYR99       0.2595
    102  O         22.7860   14.6070    9.1990 O.2    99  TYR99      -0.2718
    103  CB        24.5570   16.1570   10.3370 C.3    99  TYR99       0.0548
    104  CG        25.3800   17.2800   10.9170 C.ar   99  TYR99      -0.0200
    105  CD1       26.6530   17.4810   10.3900 C.ar   99  TYR99      -0.0009
    106  CD2       24.8490   18.1100   11.8910 C.ar   99  TYR99      -0.0009
    107  CE1       27.4240   18.5150   10.9010 C.ar   99  TYR99       0.0417
    108  CE2       25.6140   19.1330   12.3870 C.ar   99  TYR99       0.0417
    109  CZ        26.8870   19.3210   11.8880 C.ar   99  TYR99       0.1957
    110  OH        27.6590   20.3480   12.4050 O.3    99  TYR99      -0.2866
    111  N         23.2250   15.2480    7.0800 N.am  100  PHE100     -0.1962
    112  CA        22.4890   14.1860    6.4000 C.3   100  PHE100      0.1771
    113  C         23.0940   12.8430    6.8270 C.2   100  PHE100      0.2619
    114  O         24.3010   12.6230    6.6560 O.2   100  PHE100     -0.2715
    115  CB        22.5630   14.3540    4.9030 C.3   100  PHE100      0.0574
    116  CG        22.0060   13.2200    4.1000 C.ar  100  PHE100     -0.0200
    117  CD1       20.6720   12.8740    4.2180 C.ar  100  PHE100     -0.0042
    118  CD2       22.8780   12.4880    3.3000 C.ar  100  PHE100     -0.0042
    119  CE1       20.1980   11.7870    3.5110 C.ar  100  PHE100     -0.0003
    120  CE2       22.3870   11.4420    2.5950 C.ar  100  PHE100     -0.0003
    121  CZ        21.0280   11.1060    2.6700 C.ar  100  PHE100     -0.0000
    122  N         22.2550   11.9940    7.4220 N.am  101  CYS101     -0.1968
    123  CA        22.7240   10.7260    7.9640 C.3   101  CYS101      0.1712
    124  C         23.9340   10.9090    8.8470 C.2   101  CYS101      0.2296
    125  O         24.8560   10.0780    8.8140 O.2   101  CYS101     -0.2864
    126  CB        23.0020    9.6880    6.8370 C.3   101  CYS101      0.0983
    127  SG        21.4270    9.1720    6.1460 S.3   101  CYS101     -0.0798
@<TRIPOS>BOND
     1   120   121   ar
     2   120   118   ar
     3   121   119   ar
     4   118   116   ar
     5   119   117   ar
     6   116   117   ar
     7   116   115    1
     8   115   112    1
     9    81    80    1
    10    81    82    2
    11    85    84   ar
    12    78    77    2
    13    80    79    1
    14    80    83    1
    15    84    86   ar
    16    84    83    1
    17    74    73    1
    18    77    79   am
    19    77    76    1
    20   127   126    1
    21    14    13    2
    22   112   113    1
    23   112   111    1
    24    90    89    2
    25    75    76    1
    26    75    71   am
    27    87    88    1
    28   114   113    2
    29    13    15   am
    30    13    12    1
    31    70    73    1
    32    70    71    1
    33    70    69    1
    34   113   122   am
    35   126   123    1
    36    11    10    1
    37   111   101   am
    38    12     9    1
    39    71    72    2
    40   122   123    1
    41    89    88    1
    42     9    10    1
    43     9     8    1
    44    88    91    1
    45   123   124    1
    46   101   100    1
    47   101   102    2
    48    91    92    1
    49    94    96   ar
    50    94    92   ar
    51   125   124    2
    52    99   100    1
    53   100   103    1
    54    96    97   ar
    55    92    93   ar
    56   103   104    1
    57     6     5    1
    58   105   107   ar
    59   105   104   ar
    60    97    98    1
    61    97    95   ar
    62    93    95   ar
    63     4     3    1
    64   107   109   ar
    65   104   106   ar
    66     5     7    1
    67     5     2    1
    68    27    26    1
    69     3     2    1
    70   109   108   ar
    71   109   110    1
    72   106   108   ar
    73    20    17    1
    74    20    21    1
    75    17    16    1
    76    17    18    1
    77    26    28    1
    78    26    23    1
    79     2     1    1
    80    22    18   am
    81    22    23    1
    82    18    19    2
    83    25    24    2
    84    23    24    1
    85    68    66    1
    86    24    29   am
    87    42    40   ar
    88    42    41   ar
    89    40    38   ar
    90    67    65    1
    91    41    39   ar
    92    65    66    1
    93    65    62    1
    94    38    37   ar
    95    38    36   ar
    96    29    30    1
    97    39    36   ar
    98    37    35   ar
    99    36    34   ar
   100    30    31    1
   101    30    33    1
   102    62    61    1
   103    62    63    1
   104    35    34   ar
   105    32    31    2
   106    34    33    1
   107    31    43   am
   108    46    45    2
   109    61    57   am
   110    50    49    2
   111    58    57    2
   112    57    56    1
   113    63    64    2
   114    43    44    1
   115    45    44    1
   116    45    47   am
   117    49    48    1
   118    56    55    1
   119    56    59    1
   120    48    47    1
   121    48    51    1
   122    59    60    1
   123    53    52   ar
   124    51    52    1
   125    52    54   ar
