@<TRIPOS>MOLECULE
tmp/1bucA01.pdb
 189 180 0 0 0
SMALL
GASTEIGER

@<TRIPOS>ATOM
      1  N         64.6420   19.7380   93.3370 N.3    92  ALA92      -0.1245
      2  CA        66.0180   19.4750   92.9410 C.3    92  ALA92       0.1562
      3  C         66.7050   20.7530   92.4750 C.2    92  ALA92       0.2260
      4  O         67.7800   21.0950   92.9760 O.2    92  ALA92      -0.2867
      5  CB        66.0650   18.4220   91.8390 C.3    92  ALA92       0.0290
      6  N         68.9420   21.8970   95.3940 N.3    96  LEU96      -0.1245
      7  CA        70.1890   21.1900   95.1530 C.3    96  LEU96       0.1561
      8  C         71.1230   21.8210   94.1280 C.2    96  LEU96       0.2260
      9  O         72.2150   21.3010   93.8900 O.2    96  LEU96      -0.2867
     10  CB        69.9010   19.7400   94.7780 C.3    96  LEU96       0.0270
     11  CG        69.1280   18.9020   95.8030 C.3    96  LEU96       0.0019
     12  CD1       68.9720   17.5140   95.2520 C.3    96  LEU96       0.0001
     13  CD2       69.8310   18.8670   97.1620 C.3    96  LEU96       0.0001
     14  N         71.8530   17.9150   90.6140 N.3   126  PHE126     -0.1241
     15  CA        72.8540   17.6690   91.6440 C.3   126  PHE126      0.1605
     16  C         73.4030   16.2670   91.4240 C.2   126  PHE126      0.2264
     17  O         72.6730   15.2830   91.5660 O.2   126  PHE126     -0.2867
     18  CB        72.1610   17.7590   93.0070 C.3   126  PHE126      0.0534
     19  CG        73.0810   17.6360   94.1920 C.ar  126  PHE126     -0.0203
     20  CD1       73.8160   18.7300   94.6380 C.ar  126  PHE126     -0.0042
     21  CD2       73.1310   16.4540   94.9260 C.ar  126  PHE126     -0.0042
     22  CE1       74.5810   18.6540   95.8080 C.ar  126  PHE126     -0.0003
     23  CE2       73.8930   16.3680   96.0970 C.ar  126  PHE126     -0.0003
     24  CZ        74.6180   17.4750   96.5390 C.ar  126  PHE126     -0.0000
     25  N         76.0090   13.6440   92.7610 N.3   128  LEU128     -0.1231
     26  CA        76.9230   13.2210   93.8180 C.3   128  LEU128      0.1693
     27  C         77.0480   11.7100   93.8740 C.2   128  LEU128      0.2593
     28  O         78.1400   11.1760   94.0700 O.2   128  LEU128     -0.2718
     29  CB        76.4290   13.7240   95.1780 C.3   128  LEU128      0.0284
     30  CG        77.1450   13.2270   96.4470 C.3   128  LEU128      0.0019
     31  CD1       78.5760   13.7460   96.4910 C.3   128  LEU128      0.0001
     32  CD2       76.3870   13.6810   97.6910 C.3   128  LEU128      0.0001
     33  N         75.9190   11.0240   93.7430 N.am  129  THR129     -0.1939
     34  CA        75.8820    9.5790   93.9220 C.3   129  THR129      0.2028
     35  C         76.6280    8.8170   92.8330 C.2   129  THR129      0.2642
     36  O         76.6260    9.2080   91.6660 O.2   129  THR129     -0.2714
     37  CB        74.4290    9.0770   94.0160 C.3   129  THR129      0.1808
     38  OG1       73.7580    9.7970   95.0540 O.3   129  THR129     -0.2208
     39  CG2       74.3820    7.5950   94.3560 C.3   129  THR129      0.0379
     40  N         77.2910    7.7450   93.2470 N.am  130  GLU130     -0.1963
     41  CA        78.0290    6.8600   92.3540 C.3   130  GLU130      0.1718
     42  C         77.6940    5.4500   92.7900 C.2   130  GLU130      0.2458
     43  O         77.2610    5.2390   93.9210 O.2   130  GLU130     -0.2730
     44  CB        79.5340    7.0680   92.5130 C.3   130  GLU130      0.0428
     45  CG        80.0660    8.3460   91.9230 C.3   130  GLU130      0.1163
     46  CD        81.5630    8.4750   92.0790 C.2   130  GLU130      0.3649
     47  OE1       82.2240    7.4570   92.3860 O.co2 130  GLU130     -0.2457
     48  OE2       82.0790    9.5970   91.8970 O.co2 130  GLU130     -0.2457
     49  N         77.9340    4.4550   91.9260 N.am  131  PRO131     -0.2727
     50  CA        77.6390    3.0680   92.2990 C.3   131  PRO131      0.1402
     51  C         78.4030    2.5830   93.5320 C.2   131  PRO131      0.2269
     52  O         77.9730    1.6520   94.2050 O.2   131  PRO131     -0.2865
     53  CB        78.0150    2.2830   91.0380 C.3   131  PRO131      0.0296
     54  CG        79.0280    3.1660   90.3590 C.3   131  PRO131      0.0237
     55  CD        78.4370    4.5320   90.5460 C.3   131  PRO131      0.0939
     56  N         76.9640    5.8280   97.8380 N.3   134  GLY134     -0.1210
     57  CA        75.5960    6.2890   97.9960 C.3   134  GLY134      0.1956
     58  C         75.4500    6.9270   99.3630 C.2   134  GLY134      0.2613
     59  O         75.5010    8.1540   99.4990 O.2   134  GLY134     -0.2717
     60  N         75.2890    6.0890  100.3830 N.am  135  THR135     -0.1938
     61  CA        75.2430    6.5610  101.7600 C.3   135  THR135      0.2028
     62  C         76.6520    6.9450  102.2070 C.2   135  THR135      0.2642
     63  O         76.8410    7.8740  102.9880 O.2   135  THR135     -0.2714
     64  CB        74.6680    5.4900  102.6930 C.3   135  THR135      0.1808
     65  OG1       73.3190    5.2000  102.2980 O.3   135  THR135     -0.2208
     66  CG2       74.6830    5.9690  104.1330 C.3   135  THR135      0.0379
     67  N         77.6440    6.2370  101.6830 N.am  136  ASP136     -0.1971
     68  CA        79.0350    6.5630  101.9540 C.3   136  ASP136      0.1709
     69  C         79.4910    7.6030  100.9330 C.2   136  ASP136      0.2293
     70  O         80.1860    7.2730   99.9760 O.2   136  ASP136     -0.2864
     71  CB        79.8950    5.3020  101.8520 C.3   136  ASP136      0.1436
     72  CG        81.3510    5.5570  102.1590 C.2   136  ASP136      0.3671
     73  OD1       81.6890    6.6370  102.6950 O.co2 136  ASP136     -0.2456
     74  OD2       82.1660    4.6630  101.8610 O.co2 136  ASP136     -0.2456
     75  N         71.8330    7.5790   89.2560 N.3   160  PHE160     -0.1227
     76  CA        70.5620    8.0850   89.7940 C.3   160  PHE160      0.1736
     77  C         70.4410    9.6140   89.8160 C.2   160  PHE160      0.2595
     78  O         70.0850   10.1570   90.8460 O.2   160  PHE160     -0.2718
     79  CB        70.3440    7.6370   91.2480 C.3   160  PHE160      0.0547
     80  CG        70.3640    6.1640   91.4640 C.ar  160  PHE160     -0.0202
     81  CD1       69.6670    5.3080   90.6290 C.ar  160  PHE160     -0.0042
     82  CD2       71.0660    5.6360   92.5440 C.ar  160  PHE160     -0.0042
     83  CE1       69.6660    3.9410   90.8640 C.ar  160  PHE160     -0.0003
     84  CE2       71.0760    4.2790   92.7930 C.ar  160  PHE160     -0.0003
     85  CZ        70.3720    3.4240   91.9480 C.ar  160  PHE160     -0.0000
     86  N         70.7060   10.3310   88.7290 N.am  161  ILE161     -0.1966
     87  CA        70.5760   11.7900   88.8160 C.3   161  ILE161      0.1727
     88  C         69.1900   12.2980   88.4220 C.2   161  ILE161      0.2616
     89  O         68.7820   12.1830   87.2660 O.2   161  ILE161     -0.2715
     90  CB        71.6660   12.5300   87.9990 C.3   161  ILE161      0.0290
     91  CG1       73.0600   12.0870   88.4560 C.3   161  ILE161      0.0022
     92  CG2       71.5130   14.0430   88.1510 C.3   161  ILE161      0.0023
     93  CD1       73.2980   12.2410   89.9410 C.3   161  ILE161      0.0001
     94  N         68.4510   12.8140   89.4000 N.am  162  THR162     -0.1951
     95  CA        67.1520   13.4240   89.1450 C.3   162  THR162      0.1897
     96  C         67.3930   14.6280   88.2330 C.2   162  THR162      0.2313
     97  O         68.3730   15.3590   88.4100 O.2   162  THR162     -0.2863
     98  CB        66.4820   13.8670   90.4680 C.3   162  THR162      0.1794
     99  OG1       66.2480   12.7150   91.2840 O.3   162  THR162     -0.2208
    100  CG2       65.1600   14.5450   90.2150 C.3   162  THR162      0.0378
    101  N         61.8410    3.2480   87.2710 N.3   205  LYS205     -0.1245
    102  CA        61.5030    3.2060   88.6820 C.3   205  LYS205      0.1561
    103  C         60.0590    2.9300   89.0390 C.2   205  LYS205      0.2260
    104  O         59.1430    3.2040   88.2630 O.2   205  LYS205     -0.2867
    105  CB        62.0310    4.4430   89.4090 C.3   205  LYS205      0.0271
    106  CG        61.6620    5.7600   88.7960 C.3   205  LYS205      0.0035
    107  CD        62.5980    6.8270   89.3210 C.3   205  LYS205      0.0206
    108  CE        62.1830    8.1920   88.8440 C.3   205  LYS205      0.1093
    109  NZ        62.0680    8.2670   87.3820 N.3   205  LYS205     -0.1314
    110  N         57.1170    7.7400   91.0580 N.3   208  ILE208     -0.1245
    111  CA        57.6790    9.0240   90.6620 C.3   208  ILE208      0.1561
    112  C         58.0500    9.0100   89.1520 C.2   208  ILE208      0.2260
    113  O         58.9970    9.6640   88.7060 O.2   208  ILE208     -0.2867
    114  CB        58.8320    9.4250   91.6570 C.3   208  ILE208      0.0252
    115  CG1       58.6790   10.8700   92.0940 C.3   208  ILE208      0.0019
    116  CG2       60.2000    9.1860   91.1150 C.3   208  ILE208      0.0019
    117  CD1       57.7350   11.0300   93.2550 C.3   208  ILE208      0.0001
    118  N         65.2380   10.2750   85.7440 N.3   213  THR213     -0.1218
    119  CA        66.4360    9.8970   86.4890 C.3   213  THR213      0.1862
    120  C         67.4090    9.2380   85.5090 C.2   213  THR213      0.2287
    121  O         67.0770    8.2380   84.8640 O.2   213  THR213     -0.2866
    122  CB        66.0840    8.9060   87.6170 C.3   213  THR213      0.1770
    123  OG1       64.8590    9.3120   88.2420 O.3   213  THR213     -0.2211
    124  CG2       67.1840    8.8700   88.6620 C.3   213  THR213      0.0375
    125  N         59.8120    6.3550   97.8260 N.3   362  ILE362     -0.1245
    126  CA        61.0720    6.9870   97.4680 C.3   362  ILE362      0.1561
    127  C         61.4810    8.0680   98.4630 C.2   362  ILE362      0.2260
    128  O         62.6720    8.2840   98.6910 O.2   362  ILE362     -0.2867
    129  CB        61.0680    7.5390   96.0210 C.3   362  ILE362      0.0252
    130  CG1       62.4850    7.9550   95.6300 C.3   362  ILE362      0.0019
    131  CG2       60.0830    8.6800   95.8670 C.3   362  ILE362      0.0019
    132  CD1       63.5080    6.8380   95.7550 C.3   362  ILE362      0.0001
    133  N         64.0790    6.9980  100.8570 N.3   365  ILE365     -0.1231
    134  CA        65.4040    6.6300  100.3700 C.3   365  ILE365      0.1692
    135  C         66.2730    7.7730   99.8280 C.2   365  ILE365      0.2592
    136  O         67.4430    7.8840  100.2040 O.2   365  ILE365     -0.2718
    137  CB        65.3290    5.5010   99.3030 C.3   365  ILE365      0.0266
    138  CG1       64.5210    4.3150   99.8450 C.3   365  ILE365      0.0019
    139  CG2       66.7370    5.0510   98.9250 C.3   365  ILE365      0.0020
    140  CD1       64.1840    3.2390   98.8290 C.3   365  ILE365      0.0001
    141  N         65.7410    8.6090   98.9420 N.am  366  TYR366     -0.1962
    142  CA        66.5990    9.6300   98.3580 C.3   366  TYR366      0.1771
    143  C         66.8640   10.8730   99.1930 C.2   366  TYR366      0.2619
    144  O         66.0960   11.2070  100.0830 O.2   366  TYR366     -0.2715
    145  CB        66.2120    9.9690   96.9140 C.3   366  TYR366      0.0574
    146  CG        64.8780   10.6370   96.6340 C.ar  366  TYR366     -0.0198
    147  CD1       64.0150   11.0590   97.6490 C.ar  366  TYR366     -0.0009
    148  CD2       64.4920   10.8690   95.3120 C.ar  366  TYR366     -0.0009
    149  CE1       62.8020   11.7030   97.3340 C.ar  366  TYR366      0.0417
    150  CE2       63.3060   11.5030   94.9980 C.ar  366  TYR366      0.0417
    151  CZ        62.4660   11.9150   95.9990 C.ar  366  TYR366      0.1957
    152  OH        61.3010   12.5420   95.6230 O.3   366  TYR366     -0.2866
    153  N         67.9740   11.5390   98.8850 N.am  367  GLU367     -0.1963
    154  CA        68.4750   12.6960   99.6330 C.3   367  GLU367      0.1733
    155  C         68.8780   12.2960  101.0510 C.2   367  GLU367      0.2617
    156  O         68.9160   13.1230  101.9610 O.2   367  GLU367     -0.2715
    157  CB        67.4680   13.8560   99.6480 C.3   367  GLU367      0.0429
    158  CG        67.0450   14.3140   98.2610 C.3   367  GLU367      0.1163
    159  CD        66.9010   15.8170   98.1190 C.2   367  GLU367      0.3649
    160  OE1       67.5150   16.5630   98.9010 O.co2 367  GLU367     -0.2457
    161  OE2       66.1800   16.2570   97.2030 O.co2 367  GLU367     -0.2457
    162  N         69.2510   11.0270  101.1990 N.am  368  GLY368     -0.1940
    163  CA        69.6650   10.5120  102.4860 C.3   368  GLY368      0.2014
    164  C         68.5880    9.6080  103.0380 C.2   368  GLY368      0.2639
    165  O         67.5230   10.0850  103.4420 O.2   368  GLY368     -0.2714
    166  N         68.8440    8.3000  103.0220 N.am  369  THR369     -0.1950
    167  CA        67.8850    7.3290  103.5390 C.3   369  THR369      0.1897
    168  C         67.5260    7.7160  104.9630 C.2   369  THR369      0.2313
    169  O         68.3380    8.3180  105.6660 O.2   369  THR369     -0.2863
    170  CB        68.4640    5.8990  103.5500 C.3   369  THR369      0.1794
    171  OG1       69.5710    5.8380  104.4590 O.3   369  THR369     -0.2208
    172  CG2       68.9340    5.4860  102.1630 C.3   369  THR369      0.0378
    173  N         67.6230    6.1300  107.5130 N.3   371  GLU371     -0.1245
    174  CA        68.6640    5.6410  108.4190 C.3   371  GLU371      0.1567
    175  C         69.7980    6.6460  108.5920 C.2   371  GLU371      0.2260
    176  O         70.4180    6.7160  109.6510 O.2   371  GLU371     -0.2867
    177  CB        69.2300    4.3050  107.9390 C.3   371  GLU371      0.0388
    178  CG        68.2780    3.1250  108.1220 C.3   371  GLU371      0.1160
    179  CD        67.1720    3.0780  107.0910 C.2   371  GLU371      0.3649
    180  OE1       67.4620    3.2850  105.8960 O.co2 371  GLU371     -0.2457
    181  OE2       66.0140    2.8170  107.4720 O.co2 371  GLU371     -0.2457
    182  N         71.1540    8.5950  111.8580 N.3   375  MET375     -0.1245
    183  CA        72.5730    8.7490  112.1500 C.3   375  MET375      0.1570
    184  C         72.8930   10.1970  112.5010 C.2   375  MET375      0.2261
    185  O         73.5940   10.4670  113.4790 O.2   375  MET375     -0.2867
    186  CB        73.4180    8.3310  110.9480 C.3   375  MET375      0.0387
    187  CG        73.4400    6.8410  110.6760 C.3   375  MET375      0.0595
    188  SD        74.6090    6.4020  109.3760 S.3   375  MET375     -0.1393
    189  CE        73.5650    5.4730  108.2770 C.3   375  MET375      0.0692
@<TRIPOS>BOND
     1   121   120    2
     2   120   119    1
     3   118   119    1
     4   119   122    1
     5    89    88    2
     6   101   102    1
     7   109   108    1
     8   122   123    1
     9   122   124    1
    10    90    92    1
    11    90    91    1
    12    90    87    1
    13    96    97    2
    14    96    95    1
    15   104   103    2
    16    88    87    1
    17    88    94   am
    18    91    93    1
    19   102   103    1
    20   102   105    1
    21   113   112    2
    22    86    87    1
    23    86    77   am
    24   106   107    1
    25   106   105    1
    26   108   107    1
    27    95    94    1
    28    95    98    1
    29   112   111    1
    30    75    76    1
    31    76    77    1
    32    76    79    1
    33    77    78    2
    34   100    98    1
    35    54    55    1
    36    54    53    1
    37    98    99    1
    38    55    49    1
    39    14    15    1
    40    81    83   ar
    41    81    80   ar
    42   111   110    1
    43   111   114    1
    44    83    85   ar
    45    53    50    1
    46   116   114    1
    47    79    80    1
    48    16    17    2
    49    16    15    1
    50    80    82   ar
    51    15    18    1
    52   114   115    1
    53    36    35    2
    54     5     2    1
    55    48    46   ar
    56    45    46    1
    57    45    44    1
    58    49    50    1
    59    49    42   am
    60    85    84   ar
    61    46    47   ar
    62   115   117    1
    63    50    51    1
    64    41    44    1
    65    41    42    1
    66    41    40    1
    67     3     2    1
    68     3     4    2
    69    82    84   ar
    70    25    26    1
    71    42    43    2
    72    35    40   am
    73    35    34    1
    74     2     1    1
    75    18    19    1
    76    51    52    2
    77    33    27   am
    78    33    34    1
    79    26    27    1
    80    26    29    1
    81    27    28    2
    82     9     8    2
    83    34    37    1
    84    37    39    1
    85    37    38    1
    86     8     7    1
    87    19    20   ar
    88    19    21   ar
    89    20    22   ar
    90    10     7    1
    91    10    11    1
    92    21    23   ar
    93   150   148   ar
    94   150   151   ar
    95     7     6    1
    96    29    30    1
    97    12    11    1
    98   148   146   ar
    99   152   151    1
   100   130   132    1
   101   130   129    1
   102    11    13    1
   103    22    24   ar
   104   131   129    1
   105   151   149   ar
   106   129   126    1
   107    23    24   ar
   108    30    31    1
   109    30    32    1
   110   146   145    1
   111   146   147   ar
   112   145   142    1
   113   161   159   ar
   114   149   147   ar
   115   126   125    1
   116   126   127    1
   117    56    57    1
   118    57    58    1
   119   159   158    1
   120   159   160   ar
   121   158   157    1
   122   142   141    1
   123   142   143    1
   124   127   128    2
   125   140   138    1
   126   153   143   am
   127   153   154    1
   128   139   137    1
   129   141   135   am
   130   143   144    2
   131   137   138    1
   132   137   134    1
   133    58    59    2
   134    58    60   am
   135   154   157    1
   136   154   155    1
   137   135   136    2
   138   135   134    1
   139    70    69    2
   140   134   133    1
   141    60    61    1
   142    69    68    1
   143   155   162   am
   144   155   156    2
   145   162   163    1
   146    67    68    1
   147    67    62   am
   148    61    62    1
   149    61    64    1
   150    71    68    1
   151    71    72    1
   152    74    72   ar
   153    72    73   ar
   154   172   170    1
   155    62    63    2
   156    65    64    1
   157   163   164    1
   158    64    66    1
   159   166   164   am
   160   166   167    1
   161   164   165    2
   162   167   170    1
   163   167   168    1
   164   170   171    1
   165   168   169    2
   166   180   179   ar
   167   179   181   ar
   168   179   178    1
   169   173   174    1
   170   177   178    1
   171   177   174    1
   172   189   188    1
   173   174   175    1
   174   175   176    2
   175   188   187    1
   176   187   186    1
   177   186   183    1
   178   182   183    1
   179   183   184    1
   180   184   185    2
