@<TRIPOS>MOLECULE
tmp/1bucA00.pdb
 230 218 0 0 0
SMALL
GASTEIGER

@<TRIPOS>ATOM
      1  N         59.4090   17.1430   92.7570 N.3    88  ILE88      -0.1245
      2  CA        60.8330   16.9020   92.9650 C.3    88  ILE88       0.1561
      3  C         61.7620   17.4840   91.8810 C.2    88  ILE88       0.2260
      4  O         62.8850   17.8880   92.1910 O.2    88  ILE88      -0.2867
      5  CB        61.1380   15.3990   93.2210 C.3    88  ILE88       0.0252
      6  CG1       62.6150   15.2000   93.5930 C.3    88  ILE88       0.0019
      7  CG2       60.7770   14.5650   92.0110 C.3    88  ILE88       0.0019
      8  CD1       63.0520   15.9230   94.8680 C.3    88  ILE88       0.0001
      9  N         64.6420   19.7380   93.3370 N.3    92  ALA92      -0.1245
     10  CA        66.0180   19.4750   92.9410 C.3    92  ALA92       0.1562
     11  C         66.7050   20.7530   92.4750 C.2    92  ALA92       0.2260
     12  O         67.7800   21.0950   92.9760 O.2    92  ALA92      -0.2867
     13  CB        66.0650   18.4220   91.8390 C.3    92  ALA92       0.0290
     14  N         68.9420   21.8970   95.3940 N.3    96  LEU96      -0.1245
     15  CA        70.1890   21.1900   95.1530 C.3    96  LEU96       0.1561
     16  C         71.1230   21.8210   94.1280 C.2    96  LEU96       0.2260
     17  O         72.2150   21.3010   93.8900 O.2    96  LEU96      -0.2867
     18  CB        69.9010   19.7400   94.7780 C.3    96  LEU96       0.0270
     19  CG        69.1280   18.9020   95.8030 C.3    96  LEU96       0.0019
     20  CD1       68.9720   17.5140   95.2520 C.3    96  LEU96       0.0001
     21  CD2       69.8310   18.8670   97.1620 C.3    96  LEU96       0.0001
     22  N         71.8530   17.9150   90.6140 N.3   126  PHE126     -0.1241
     23  CA        72.8540   17.6690   91.6440 C.3   126  PHE126      0.1605
     24  C         73.4030   16.2670   91.4240 C.2   126  PHE126      0.2264
     25  O         72.6730   15.2830   91.5660 O.2   126  PHE126     -0.2867
     26  CB        72.1610   17.7590   93.0070 C.3   126  PHE126      0.0534
     27  CG        73.0810   17.6360   94.1920 C.ar  126  PHE126     -0.0203
     28  CD1       73.8160   18.7300   94.6380 C.ar  126  PHE126     -0.0042
     29  CD2       73.1310   16.4540   94.9260 C.ar  126  PHE126     -0.0042
     30  CE1       74.5810   18.6540   95.8080 C.ar  126  PHE126     -0.0003
     31  CE2       73.8930   16.3680   96.0970 C.ar  126  PHE126     -0.0003
     32  CZ        74.6180   17.4750   96.5390 C.ar  126  PHE126     -0.0000
     33  N         76.0090   13.6440   92.7610 N.3   128  LEU128     -0.1231
     34  CA        76.9230   13.2210   93.8180 C.3   128  LEU128      0.1693
     35  C         77.0480   11.7100   93.8740 C.2   128  LEU128      0.2592
     36  O         78.1400   11.1760   94.0700 O.2   128  LEU128     -0.2718
     37  CB        76.4290   13.7240   95.1780 C.3   128  LEU128      0.0284
     38  CG        77.1450   13.2270   96.4470 C.3   128  LEU128      0.0019
     39  CD1       78.5760   13.7460   96.4910 C.3   128  LEU128      0.0001
     40  CD2       76.3870   13.6810   97.6910 C.3   128  LEU128      0.0001
     41  N         75.9190   11.0240   93.7430 N.am  129  THR129     -0.1953
     42  CA        75.8820    9.5790   93.9220 C.3   129  THR129      0.1897
     43  C         76.6280    8.8170   92.8330 C.2   129  THR129      0.2313
     44  O         76.6260    9.2080   91.6660 O.2   129  THR129     -0.2863
     45  CB        74.4290    9.0770   94.0160 C.3   129  THR129      0.1794
     46  OG1       73.7580    9.7970   95.0540 O.3   129  THR129     -0.2208
     47  CG2       74.3820    7.5950   94.3560 C.3   129  THR129      0.0378
     48  N         76.9640    5.8280   97.8380 N.3   134  GLY134     -0.1210
     49  CA        75.5960    6.2890   97.9960 C.3   134  GLY134      0.1956
     50  C         75.4500    6.9270   99.3630 C.2   134  GLY134      0.2613
     51  O         75.5010    8.1540   99.4990 O.2   134  GLY134     -0.2717
     52  N         75.2890    6.0890  100.3830 N.am  135  THR135     -0.1938
     53  CA        75.2430    6.5610  101.7600 C.3   135  THR135      0.2028
     54  C         76.6520    6.9450  102.2070 C.2   135  THR135      0.2642
     55  O         76.8410    7.8740  102.9880 O.2   135  THR135     -0.2714
     56  CB        74.6680    5.4900  102.6930 C.3   135  THR135      0.1808
     57  OG1       73.3190    5.2000  102.2980 O.3   135  THR135     -0.2208
     58  CG2       74.6830    5.9690  104.1330 C.3   135  THR135      0.0379
     59  N         77.6440    6.2370  101.6830 N.am  136  ASP136     -0.1957
     60  CA        79.0350    6.5630  101.9540 C.3   136  ASP136      0.1840
     61  C         79.4910    7.6030  100.9330 C.2   136  ASP136      0.2622
     62  O         80.1860    7.2730   99.9760 O.2   136  ASP136     -0.2715
     63  CB        79.8950    5.3020  101.8520 C.3   136  ASP136      0.1450
     64  CG        81.3510    5.5570  102.1590 C.2   136  ASP136      0.3671
     65  OD1       81.6890    6.6370  102.6950 O.co2 136  ASP136     -0.2456
     66  OD2       82.1660    4.6630  101.8610 O.co2 136  ASP136     -0.2456
     67  N         79.1110    8.8590  101.1520 N.am  137  ALA137     -0.1963
     68  CA        79.4330    9.9390  100.2210 C.3   137  ALA137      0.1728
     69  C         80.9210   10.0080   99.8880 C.2   137  ALA137      0.2616
     70  O         81.3030   10.4100   98.7890 O.2   137  ALA137     -0.2715
     71  CB        78.9610   11.2670  100.7830 C.3   137  ALA137      0.0334
     72  N         81.7530    9.5780  100.8280 N.am  138  SER138     -0.1950
     73  CA        83.2010    9.6300  100.6650 C.3   138  SER138      0.1924
     74  C         83.7650    8.6720   99.6140 C.2   138  SER138      0.2314
     75  O         84.9200    8.8030   99.2220 O.2   138  SER138     -0.2863
     76  CB        83.8850    9.3840  102.0150 C.3   138  SER138      0.2116
     77  OG        83.4440   10.3190  102.9920 O.3   138  SER138     -0.2180
     78  N         71.8330    7.5790   89.2560 N.3   160  PHE160     -0.1241
     79  CA        70.5620    8.0850   89.7940 C.3   160  PHE160      0.1605
     80  C         70.4410    9.6140   89.8160 C.2   160  PHE160      0.2264
     81  O         70.0850   10.1570   90.8460 O.2   160  PHE160     -0.2867
     82  CB        70.3440    7.6370   91.2480 C.3   160  PHE160      0.0534
     83  CG        70.3640    6.1640   91.4640 C.ar  160  PHE160     -0.0203
     84  CD1       69.6670    5.3080   90.6290 C.ar  160  PHE160     -0.0042
     85  CD2       71.0660    5.6360   92.5440 C.ar  160  PHE160     -0.0042
     86  CE1       69.6660    3.9410   90.8640 C.ar  160  PHE160     -0.0003
     87  CE2       71.0760    4.2790   92.7930 C.ar  160  PHE160     -0.0003
     88  CZ        70.3720    3.4240   91.9480 C.ar  160  PHE160     -0.0000
     89  N         68.4510   12.8140   89.4000 N.3   162  THR162     -0.1218
     90  CA        67.1520   13.4240   89.1450 C.3   162  THR162      0.1862
     91  C         67.3930   14.6280   88.2330 C.2   162  THR162      0.2287
     92  O         68.3730   15.3590   88.4100 O.2   162  THR162     -0.2866
     93  CB        66.4820   13.8670   90.4680 C.3   162  THR162      0.1770
     94  OG1       66.2480   12.7150   91.2840 O.3   162  THR162     -0.2211
     95  CG2       65.1600   14.5450   90.2150 C.3   162  THR162      0.0375
     96  N         87.0580   12.2440  102.3330 N.3   182  ASN182     -0.1225
     97  CA        86.0510   13.1210  102.9270 C.3   182  ASN182      0.1785
     98  C         86.5970   14.5500  103.0760 C.2   182  ASN182      0.2597
     99  O         85.8350   15.5350  103.0240 O.2   182  ASN182     -0.2718
    100  CB        85.6830   12.5270  104.2880 C.3   182  ASN182      0.1169
    101  CG        85.5100   13.5440  105.4050 C.2   182  ASN182      0.2627
    102  OD1       86.2570   14.5170  105.4790 O.2   182  ASN182     -0.2716
    103  ND2       84.5530   13.3660  106.2940 N.am  182  ASN182     -0.0877
    104  N         87.9110   14.8260  102.9330 N.am  183  HIS183     -0.1975
    105  CA        88.5200   16.1670  102.9100 C.3   183  HIS183      0.1656
    106  C         89.1850   16.5030  101.5700 C.2   183  HIS183      0.2291
    107  O         90.0840   17.3410  101.5290 O.2   183  HIS183     -0.2864
    108  CB        89.5920   16.2670  103.9980 C.3   183  HIS183      0.0771
    109  CG        89.1400   16.9580  105.2430 C.ar  183  HIS183      0.0820
    110  ND1       88.9270   16.2870  106.4270 N.ar  183  HIS183     -0.2267
    111  CD2       88.9140   18.2670  105.5070 C.ar  183  HIS183      0.1154
    112  CE1       88.5970   17.1510  107.3690 C.ar  183  HIS183      0.1986
    113  NE2       88.5820   18.3610  106.8370 N.ar  183  HIS183     -0.2212
    114  N         82.7330   18.2040  100.1410 N.3   236  PHE236     -0.1227
    115  CA        81.8970   17.4030  101.0440 C.3   236  PHE236      0.1736
    116  C         81.0700   18.3400  101.9280 C.2   236  PHE236      0.2595
    117  O         79.8810   18.1160  102.1430 O.2   236  PHE236     -0.2718
    118  CB        82.7700   16.4870  101.9180 C.3   236  PHE236      0.0547
    119  CG        81.9910   15.4670  102.7140 C.ar  236  PHE236     -0.0202
    120  CD1       81.5780   14.2730  102.1270 C.ar  236  PHE236     -0.0042
    121  CD2       81.6850   15.6910  104.0550 C.ar  236  PHE236     -0.0042
    122  CE1       80.8730   13.3160  102.8620 C.ar  236  PHE236     -0.0003
    123  CE2       80.9810   14.7400  104.7960 C.ar  236  PHE236     -0.0003
    124  CZ        80.5750   13.5510  104.1970 C.ar  236  PHE236     -0.0000
    125  N         81.7030   19.4020  102.4210 N.am  237  LYS237     -0.1980
    126  CA        81.0210   20.3780  103.2610 C.3   237  LYS237      0.1596
    127  C         79.8770   20.9820  102.4680 C.2   237  LYS237      0.2287
    128  O         78.7390   21.0050  102.9300 O.2   237  LYS237     -0.2864
    129  CB        82.0070   21.4570  103.7270 C.3   237  LYS237      0.0298
    130  CG        81.3810   22.6990  104.3630 C.3   237  LYS237      0.0038
    131  CD        81.4890   23.9090  103.4190 C.3   237  LYS237      0.0206
    132  CE        80.9450   25.2010  104.0400 C.3   237  LYS237      0.1093
    133  NZ        81.7560   25.7190  105.1800 N.3   237  LYS237     -0.1314
    134  N         77.0340   18.4290  101.9320 N.3   240  MET240     -0.1230
    135  CA        76.3290   18.1950  103.1940 C.3   240  MET240      0.1702
    136  C         75.3530   19.3180  103.4970 C.2   240  MET240      0.2592
    137  O         74.1680   19.0870  103.7370 O.2   240  MET240     -0.2718
    138  CB        77.3230   18.0740  104.3460 C.3   240  MET240      0.0401
    139  CG        78.1460   16.8160  104.3340 C.3   240  MET240      0.0596
    140  SD        77.1350   15.3530  104.5550 S.3   240  MET240     -0.1393
    141  CE        76.9740   14.7790  102.8450 C.3   240  MET240      0.0692
    142  N         75.8530   20.5430  103.4480 N.am  241  MET241     -0.1979
    143  CA        75.0280   21.7010  103.7220 C.3   241  MET241      0.1605
    144  C         73.9250   21.8610  102.6850 C.2   241  MET241      0.2287
    145  O         72.8540   22.3820  102.9850 O.2   241  MET241     -0.2864
    146  CB        75.9070   22.9490  103.8070 C.3   241  MET241      0.0413
    147  CG        76.8610   22.9020  104.9950 C.3   241  MET241      0.0598
    148  SD        78.1380   24.1610  104.9860 S.3   241  MET241     -0.1393
    149  CE        77.0890   25.6440  105.0410 C.3   241  MET241      0.0692
    150  N         72.4980   19.2720  101.1750 N.3   243  LEU243     -0.1231
    151  CA        71.5390   18.2210  101.4860 C.3   243  LEU243      0.1693
    152  C         70.6010   18.5120  102.6620 C.2   243  LEU243      0.2592
    153  O         69.4570   18.0670  102.6480 O.2   243  LEU243     -0.2718
    154  CB        72.2400   16.8680  101.6340 C.3   243  LEU243      0.0284
    155  CG        72.6330   16.2640  100.2760 C.3   243  LEU243      0.0019
    156  CD1       73.5500   15.0750  100.4500 C.3   243  LEU243      0.0001
    157  CD2       71.3760   15.8710   99.4940 C.3   243  LEU243      0.0001
    158  N         71.0440   19.2990  103.6430 N.am  244  ASP244     -0.1974
    159  CA        70.1620   19.6730  104.7560 C.3   244  ASP244      0.1709
    160  C         68.9470   20.4350  104.2230 C.2   244  ASP244      0.2293
    161  O         67.8080   20.1520  104.6060 O.2   244  ASP244     -0.2864
    162  CB        70.8890   20.5420  105.7860 C.3   244  ASP244      0.1436
    163  CG        72.1580   19.8990  106.3080 C.2   244  ASP244      0.3671
    164  OD1       72.1610   18.6790  106.5840 O.co2 244  ASP244     -0.2456
    165  OD2       73.1620   20.6270  106.4460 O.co2 244  ASP244     -0.2456
    166  N         66.6490   18.2430  101.9960 N.3   247  ARG247     -0.1245
    167  CA        65.8360   17.3580  102.8170 C.3   247  ARG247      0.1563
    168  C         64.5310   17.9930  103.2970 C.2   247  ARG247      0.2260
    169  O         63.5050   17.3090  103.3890 O.2   247  ARG247     -0.2867
    170  CB        66.6670   16.8250  103.9890 C.3   247  ARG247      0.0307
    171  CG        67.7250   15.8360  103.5330 C.3   247  ARG247      0.0489
    172  CD        68.7790   15.5840  104.5750 C.3   247  ARG247      0.2205
    173  NE        69.8180   14.6980  104.0610 N.pl3 247  ARG247     -0.0865
    174  CZ        70.9490   14.4140  104.7020 C.cat 247  ARG247      0.5346
    175  NH1       71.2010   14.9470  105.8900 N.pl3 247  ARG247      0.1354
    176  NH2       71.8390   13.6050  104.1460 N.pl3 247  ARG247      0.1354
    177  N         70.4030   21.5250  110.3520 N.3   317  THR317     -0.1218
    178  CA        70.7700   20.1670  109.9390 C.3   317  THR317      0.1862
    179  C         69.8690   19.0810  110.5500 C.2   317  THR317      0.2287
    180  O         69.3080   18.2450  109.8400 O.2   317  THR317     -0.2866
    181  CB        72.2400   19.8760  110.3210 C.3   317  THR317      0.1770
    182  OG1       73.1080   20.7470  109.5820 O.3   317  THR317     -0.2211
    183  CG2       72.5990   18.4390  110.0410 C.3   317  THR317      0.0375
    184  N         65.7410    8.6090   98.9420 N.3   366  TYR366     -0.1227
    185  CA        66.5990    9.6300   98.3580 C.3   366  TYR366      0.1736
    186  C         66.8640   10.8730   99.1930 C.2   366  TYR366      0.2595
    187  O         66.0960   11.2070  100.0830 O.2   366  TYR366     -0.2718
    188  CB        66.2120    9.9690   96.9140 C.3   366  TYR366      0.0548
    189  CG        64.8780   10.6370   96.6340 C.ar  366  TYR366     -0.0200
    190  CD1       64.0150   11.0590   97.6490 C.ar  366  TYR366     -0.0009
    191  CD2       64.4920   10.8690   95.3120 C.ar  366  TYR366     -0.0009
    192  CE1       62.8020   11.7030   97.3340 C.ar  366  TYR366      0.0417
    193  CE2       63.3060   11.5030   94.9980 C.ar  366  TYR366      0.0417
    194  CZ        62.4660   11.9150   95.9990 C.ar  366  TYR366      0.1957
    195  OH        61.3010   12.5420   95.6230 O.3   366  TYR366     -0.2866
    196  N         67.9740   11.5390   98.8850 N.am  367  GLU367     -0.1965
    197  CA        68.4750   12.6960   99.6330 C.3   367  GLU367      0.1733
    198  C         68.8780   12.2960  101.0510 C.2   367  GLU367      0.2616
    199  O         68.9160   13.1230  101.9610 O.2   367  GLU367     -0.2715
    200  CB        67.4680   13.8560   99.6480 C.3   367  GLU367      0.0429
    201  CG        67.0450   14.3140   98.2610 C.3   367  GLU367      0.1163
    202  CD        66.9010   15.8170   98.1190 C.2   367  GLU367      0.3649
    203  OE1       67.5150   16.5630   98.9010 O.co2 367  GLU367     -0.2457
    204  OE2       66.1800   16.2570   97.2030 O.co2 367  GLU367     -0.2457
    205  N         69.2510   11.0270  101.1990 N.am  368  GLY368     -0.1955
    206  CA        69.6650   10.5120  102.4860 C.3   368  GLY368      0.1869
    207  C         68.5880    9.6080  103.0380 C.2   368  GLY368      0.2309
    208  O         67.5230   10.0850  103.4420 O.2   368  GLY368     -0.2863
    209  N         70.0800    7.4120  107.5440 N.3   372  VAL372     -0.1245
    210  CA        71.0740    8.4690  107.6350 C.3   372  VAL372      0.1561
    211  C         70.5440    9.5820  108.5360 C.2   372  VAL372      0.2260
    212  O         71.2780   10.1140  109.3620 O.2   372  VAL372     -0.2867
    213  CB        71.4520    9.0100  106.2360 C.3   372  VAL372      0.0252
    214  CG1       72.0980   10.3700  106.3380 C.3   372  VAL372      0.0019
    215  CG2       72.4200    8.0600  105.5680 C.3   372  VAL372      0.0019
    216  N         71.1540    8.5950  111.8580 N.3   375  MET375     -0.1230
    217  CA        72.5730    8.7490  112.1500 C.3   375  MET375      0.1702
    218  C         72.8930   10.1970  112.5010 C.2   375  MET375      0.2592
    219  O         73.5940   10.4670  113.4790 O.2   375  MET375     -0.2718
    220  CB        73.4180    8.3310  110.9480 C.3   375  MET375      0.0401
    221  CG        73.4400    6.8410  110.6760 C.3   375  MET375      0.0596
    222  SD        74.6090    6.4020  109.3760 S.3   375  MET375     -0.1393
    223  CE        73.5650    5.4730  108.2770 C.3   375  MET375      0.0692
    224  N         72.3530   11.1200  111.7100 N.am  376  VAL376     -0.1980
    225  CA        72.5890   12.5520  111.8760 C.3   376  VAL376      0.1595
    226  C         72.0650   13.0210  113.2360 C.2   376  VAL376      0.2287
    227  O         72.8140   13.5820  114.0450 O.2   376  VAL376     -0.2864
    228  CB        71.9060   13.3620  110.7200 C.3   376  VAL376      0.0276
    229  CG1       72.1110   14.8490  110.8980 C.3   376  VAL376      0.0022
    230  CG2       72.4680   12.9420  109.3780 C.3   376  VAL376      0.0022
@<TRIPOS>BOND
     1    91    92    2
     2    91    90    1
     3    90    89    1
     4    90    93    1
     5    78    79    1
     6    79    80    1
     7    79    82    1
     8    80    81    2
     9    95    93    1
    10    93    94    1
    11    22    23    1
    12    84    86   ar
    13    84    83   ar
    14    86    88   ar
    15    82    83    1
    16    24    25    2
    17    24    23    1
    18    83    85   ar
    19    23    26    1
    20    44    43    2
    21    13    10    1
    22     3     4    2
    23     3     2    1
    24    88    87   ar
    25     7     5    1
    26    11    10    1
    27    11    12    2
    28    85    87   ar
    29     1     2    1
    30    33    34    1
    31    43    42    1
    32    10     9    1
    33     2     5    1
    34    26    27    1
    35     5     6    1
    36     6     8    1
    37    41    35   am
    38    41    42    1
    39    34    35    1
    40    34    37    1
    41    35    36    2
    42    17    16    2
    43    42    45    1
    44    45    47    1
    45    45    46    1
    46    16    15    1
    47    27    28   ar
    48    27    29   ar
    49    28    30   ar
    50    18    15    1
    51    18    19    1
    52    29    31   ar
    53   193   191   ar
    54   193   194   ar
    55    15    14    1
    56    37    38    1
    57    20    19    1
    58   191   189   ar
    59   195   194    1
    60    19    21    1
    61    30    32   ar
    62   194   192   ar
    63    31    32   ar
    64    38    39    1
    65    38    40    1
    66   189   188    1
    67   189   190   ar
    68   188   185    1
    69   204   202   ar
    70   192   190   ar
    71    48    49    1
    72    49    50    1
    73   202   201    1
    74   202   203   ar
    75   201   200    1
    76   185   184    1
    77   185   186    1
    78    70    69    2
    79   196   186   am
    80   196   197    1
    81   186   187    2
    82    75    74    2
    83    50    51    2
    84    50    52   am
    85   157   155    1
    86    74    73    1
    87   197   200    1
    88   197   198    1
    89    69    68    1
    90    69    72   am
    91    62    61    2
    92   114   115    1
    93    68    71    1
    94    68    67    1
    95   155   156    1
    96   155   154    1
    97    52    53    1
    98    73    72    1
    99    73    76    1
   100    61    67   am
   101    61    60    1
   102   115   118    1
   103   115   116    1
   104   198   205   am
   105   198   199    2
   106   150   151    1
   107   205   206    1
   108   151   154    1
   109   151   152    1
   110   107   106    2
   111   106   105    1
   112    59    60    1
   113    59    54   am
   114    53    54    1
   115    53    56    1
   116    63    60    1
   117    63    64    1
   118    66    64   ar
   119   118   119    1
   120   116   117    2
   121   116   125   am
   122   134   135    1
   123   166   167    1
   124    76    77    1
   125   120   119   ar
   126   120   122   ar
   127    64    65   ar
   128    54    55    2
   129    57    56    1
   130    96    97    1
   131   125   126    1
   132   127   128    2
   133   127   126    1
   134   206   207    1
   135   153   152    2
   136   152   158   am
   137   144   145    2
   138   144   143    1
   139    56    58    1
   140   119   121   ar
   141   167   168    1
   142   167   170    1
   143   141   140    1
   144   122   124   ar
   145   105   104    1
   146   105   108    1
   147    97    98    1
   148    97   100    1
   149   104    98   am
   150    99    98    2
   151   207   208    2
   152   135   136    1
   153   135   138    1
   154   126   129    1
   155   168   169    2
   156   131   132    1
   157   131   130    1
   158   142   136   am
   159   142   143    1
   160   136   137    2
   161   171   170    1
   162   171   172    1
   163   158   159    1
   164   143   146    1
   165   129   130    1
   166   146   147    1
   167   108   109    1
   168   132   133    1
   169   121   123   ar
   170   173   172    1
   171   173   174    2
   172   176   174    1
   173   124   123   ar
   174   160   161    2
   175   160   159    1
   176   100   101    1
   177   139   138    1
   178   139   140    1
   179   174   175    1
   180   159   162    1
   181   148   147    1
   182   148   149    1
   183   109   111   ar
   184   109   110   ar
   185   101   102    2
   186   101   103   am
   187   111   113   ar
   188   215   213    1
   189   162   163    1
   190   213   214    1
   191   213   210    1
   192   163   165   ar
   193   163   164   ar
   194   110   112   ar
   195   113   112   ar
   196   209   210    1
   197   210   211    1
   198   223   222    1
   199   211   212    2
   200   222   221    1
   201   230   228    1
   202   182   181    1
   203   180   179    2
   204   178   181    1
   205   178   177    1
   206   178   179    1
   207   183   181    1
   208   221   220    1
   209   228   229    1
   210   228   225    1
   211   220   217    1
   212   224   225    1
   213   224   218   am
   214   216   217    1
   215   225   226    1
   216   217   218    1
   217   218   219    2
   218   226   227    2
