@<TRIPOS>MOLECULE
tmp/1buiA00.pdb
 153 154 0 0 0
SMALL
GASTEIGER

@<TRIPOS>ATOM
      1  N         63.2660   13.1270   71.1820 N.3    43  PHE43      -0.1227
      2  CA        63.2260   14.2350   70.2190 C.3    43  PHE43       0.1736
      3  C         63.0390   13.8300   68.7380 C.2    43  PHE43       0.2595
      4  O         62.7030   14.6640   67.8860 O.2    43  PHE43      -0.2718
      5  CB        64.4600   15.1030   70.3770 C.3    43  PHE43       0.0547
      6  CG        65.7280   14.3630   70.1930 C.ar   43  PHE43      -0.0202
      7  CD1       66.3380   13.7430   71.2680 C.ar   43  PHE43      -0.0042
      8  CD2       66.3110   14.2730   68.9400 C.ar   43  PHE43      -0.0042
      9  CE1       67.5200   13.0400   71.0970 C.ar   43  PHE43      -0.0003
     10  CE2       67.4870   13.5760   68.7550 C.ar   43  PHE43      -0.0003
     11  CZ        68.0960   12.9560   69.8360 C.ar   43  PHE43      -0.0000
     12  N         63.2930   12.5580   68.4390 N.am   44  CYS44      -0.1970
     13  CA        63.1410   11.9990   67.0970 C.3    44  CYS44       0.1712
     14  C         62.7920   10.5340   67.2360 C.2    44  CYS44       0.2296
     15  O         62.7400    9.9820   68.3290 O.2    44  CYS44      -0.2864
     16  CB        64.4310   12.0990   66.2950 C.3    44  CYS44       0.0983
     17  SG        64.6600   13.6860   65.4580 S.3    44  CYS44      -0.0798
     18  N         69.4430   14.9460   60.6100 N.3    59  HIS59      -0.1226
     19  CA        69.2840   16.2280   61.2880 C.3    59  HIS59       0.1752
     20  C         68.9710   16.0950   62.7650 C.2    59  HIS59       0.2596
     21  O         69.0150   17.0810   63.4960 O.2    59  HIS59      -0.2718
     22  CB        68.2520   17.1090   60.6020 C.3    59  HIS59       0.0759
     23  CG        66.8450   16.6370   60.7470 C.ar   59  HIS59       0.0818
     24  ND1       66.1030   16.1130   59.7130 N.ar   59  HIS59      -0.2268
     25  CD2       66.0220   16.6390   61.8270 C.ar   59  HIS59       0.1154
     26  CE1       64.8750   15.8180   60.1820 C.ar   59  HIS59       0.1986
     27  NE2       64.7690   16.1170   61.4610 N.ar   59  HIS59      -0.2212
     28  N         68.6150   14.8870   63.1960 N.am   60  CYS60      -0.1970
     29  CA        68.3360   14.6190   64.6070 C.3    60  CYS60       0.1712
     30  C         69.6760   14.4890   65.3190 C.2    60  CYS60       0.2296
     31  O         69.7770   14.6660   66.5290 O.2    60  CYS60      -0.2864
     32  CB        67.5930   13.3020   64.7630 C.3    60  CYS60       0.0983
     33  SG        65.9690   13.2390   63.9660 S.3    60  CYS60      -0.0798
     34  N         49.0720   14.0260   59.1390 N.3   191  ASP191     -0.1225
     35  CA        50.4530   14.1290   58.6660 C.3   191  ASP191      0.1805
     36  C         51.4610   13.8860   59.7910 C.2   191  ASP191      0.2598
     37  O         51.1030   13.8430   60.9550 O.2   191  ASP191     -0.2718
     38  CB        50.6740   15.5430   58.1080 C.3   191  ASP191      0.1424
     39  CG        51.9900   15.7020   57.3570 C.2   191  ASP191      0.3668
     40  OD1       52.5480   14.6900   56.8430 O.co2 191  ASP191     -0.2456
     41  OD2       52.4380   16.8700   57.2620 O.co2 191  ASP191     -0.2456
     42  N         52.7260   13.7200   59.4330 N.am  192  SER192     -0.1938
     43  CA        53.7670   13.5410   60.4200 C.3   192  SER192      0.2055
     44  C         54.1620   14.9620   60.8320 C.2   192  SER192      0.2643
     45  O         53.6590   15.9350   60.2760 O.2   192  SER192     -0.2714
     46  CB        54.9500   12.7810   59.8230 C.3   192  SER192      0.2130
     47  OG        55.4610   13.4260   58.6720 O.3   192  SER192     -0.2179
     48  N         55.0530   15.0970   61.8020 N.am  193  CYS193     -0.1953
     49  CA        55.4360   16.4230   62.2520 C.3   193  CYS193      0.1843
     50  C         56.6970   16.3490   63.1020 C.2   193  CYS193      0.2625
     51  O         57.2630   15.2750   63.2620 O.2   193  CYS193     -0.2714
     52  CB        54.2850   17.0150   63.0370 C.3   193  CYS193      0.0997
     53  SG        54.4150   18.7960   63.2470 S.3   193  CYS193     -0.0797
     54  N         57.1280   17.4720   63.6700 N.am  194  GLN194     -0.1963
     55  CA        58.3630   17.4910   64.4730 C.3   194  GLN194      0.1733
     56  C         58.3120   16.4590   65.5920 C.2   194  GLN194      0.2616
     57  O         57.2990   16.3240   66.2670 O.2   194  GLN194     -0.2715
     58  CB        58.6200   18.8910   65.0330 C.3   194  GLN194      0.0408
     59  CG        57.7880   19.9970   64.3520 C.3   194  GLN194      0.0908
     60  CD        58.1780   20.2540   62.9090 C.2   194  GLN194      0.2608
     61  OE1       57.3800   20.7500   62.1100 O.2   194  GLN194     -0.2717
     62  NE2       59.4130   19.9320   62.5720 N.am  194  GLN194     -0.0878
     63  N         59.3840   15.6960   65.7590 N.am  195  GLY195     -0.1955
     64  CA        59.3990   14.6670   66.7890 C.3   195  GLY195      0.1869
     65  C         59.1720   13.2910   66.1950 C.2   195  GLY195      0.2309
     66  O         59.3750   12.2720   66.8550 O.2   195  GLY195     -0.2863
     67  N         60.4510   12.7040   62.9990 N.3   197  SER197     -0.1217
     68  CA        61.6200   12.5610   62.1440 C.3   197  SER197      0.1889
     69  C         62.4380   11.3490   62.4290 C.2   197  SER197      0.2288
     70  O         62.6850   11.0330   63.5740 O.2   197  SER197     -0.2866
     71  CB        62.4920   13.7830   62.2610 C.3   197  SER197      0.2089
     72  OG        61.8960   14.8440   61.5470 O.3   197  SER197     -0.2183
     73  N         61.1730    9.5910   58.0100 N.3   215  THR215     -0.1203
     74  CA        60.5700   10.9220   58.1040 C.3   215  THR215      0.1994
     75  C         61.7200   11.9400   58.1230 C.2   215  THR215      0.2619
     76  O         62.7530   11.7310   58.7740 O.2   215  THR215     -0.2717
     77  CB        59.5800   11.0220   59.3010 C.3   215  THR215      0.1784
     78  OG1       58.5460   10.0450   59.1170 O.3   215  THR215     -0.2211
     79  CG2       58.9200   12.3990   59.3880 C.3   215  THR215      0.0376
     80  N         61.5680   12.9990   57.3370 N.am  216  SER216     -0.1937
     81  CA        62.6230   13.9810   57.2000 C.3   216  SER216      0.2055
     82  C         62.2310   15.4500   57.3310 C.2   216  SER216      0.2643
     83  O         62.7800   16.1570   58.1570 O.2   216  SER216     -0.2714
     84  CB        63.3160   13.7330   55.8670 C.3   216  SER216      0.2130
     85  OG        64.0340   14.8760   55.4570 O.3   216  SER216     -0.2179
     86  N         61.3330   15.9260   56.4810 N.am  217  TRP217     -0.1959
     87  CA        60.9110   17.3200   56.5520 C.3   217  TRP217      0.1771
     88  C         59.5380   17.5910   55.9390 C.2   217  TRP217      0.2620
     89  O         58.8050   16.6730   55.5100 O.2   217  TRP217     -0.2715
     90  CB        61.9490   18.2410   55.8940 C.3   217  TRP217      0.0590
     91  CG        62.1010   18.0840   54.4100 C.ar  217  TRP217      0.0006
     92  CD1       62.8370   17.1340   53.7630 C.ar  217  TRP217      0.0946
     93  CD2       61.4970   18.8880   53.3800 C.ar  217  TRP217      0.0152
     94  NE1       62.7220   17.2890   52.3970 N.ar  217  TRP217     -0.2442
     95  CE2       61.9030   18.3530   52.1370 C.ar  217  TRP217      0.0810
     96  CE3       60.6550   20.0030   53.3860 C.ar  217  TRP217      0.0012
     97  CZ2       61.4960   18.8870   50.9270 C.ar  217  TRP217      0.0191
     98  CZ3       60.2530   20.5380   52.1740 C.ar  217  TRP217      0.0001
     99  CH2       60.6720   19.9780   50.9620 C.ar  217  TRP217      0.0015
    100  N         59.1780   18.8650   55.9240 N.am  218  GLY218     -0.1940
    101  CA        57.9200   19.2340   55.3200 C.3   218  GLY218      0.2014
    102  C         57.6030   20.6640   55.6200 C.2   218  GLY218      0.2639
    103  O         58.1450   21.2040   56.5850 O.2   218  GLY218     -0.2714
    104  N         56.7730   21.2800   54.7780 N.am  219  LEU219     -0.1963
    105  CA        56.3390   22.6600   55.0040 C.3   219  LEU219      0.1728
    106  C         55.1420   22.6130   55.9720 C.2   219  LEU219      0.2617
    107  O         54.0080   22.3250   55.5770 O.2   219  LEU219     -0.2715
    108  CB        55.9510   23.3210   53.6840 C.3   219  LEU219      0.0311
    109  CG        57.0710   24.0030   52.9100 C.3   219  LEU219      0.0022
    110  CD1       58.4110   23.4070   53.2620 C.3   219  LEU219      0.0001
    111  CD2       56.8060   23.8610   51.4320 C.3   219  LEU219      0.0001
    112  N         55.4120   22.8510   57.2540 N.am  220  GLY220     -0.1940
    113  CA        54.3670   22.7800   58.2560 C.3   220  GLY220      0.2014
    114  C         53.8690   21.3550   58.4440 C.2   220  GLY220      0.2639
    115  O         54.4030   20.4120   57.8530 O.2   220  GLY220     -0.2714
    116  N         52.8340   21.1860   59.2570 N.am  221  CYS221     -0.1967
    117  CA        52.2910   19.8600   59.4860 C.3   221  CYS221      0.1712
    118  C         50.8190   19.8270   59.1660 C.2   221  CYS221      0.2296
    119  O         50.0620   20.6710   59.6430 O.2   221  CYS221     -0.2864
    120  CB        52.5220   19.4390   60.9390 C.3   221  CYS221      0.0983
    121  SG        54.2800   19.4810   61.3560 S.3   221  CYS221     -0.0798
    122  N         50.4810   20.6120   51.0480 N.3   226  LYS226     -0.1231
    123  CA        51.8430   20.5260   51.5440 C.3   226  LYS226      0.1678
    124  C         52.1070   19.1780   52.1950 C.2   226  LYS226      0.2434
    125  O         52.1470   19.0730   53.4200 O.2   226  LYS226     -0.2733
    126  CB        52.1760   21.6400   52.5370 C.3   226  LYS226      0.0284
    127  CG        51.7820   23.0460   52.1090 C.3   226  LYS226      0.0035
    128  CD        52.4180   23.4390   50.8040 C.3   226  LYS226      0.0206
    129  CE        51.7930   24.6930   50.2450 C.3   226  LYS226      0.1093
    130  NZ        52.5070   25.1480   49.0150 N.3   226  LYS226     -0.1314
    131  N         52.2570   18.1150   51.3800 N.am  227  PRO227     -0.2718
    132  CA        52.5330   16.7830   51.9230 C.3   227  PRO227      0.1535
    133  C         53.8510   16.7170   52.7190 C.2   227  PRO227      0.2599
    134  O         54.5720   17.7260   52.8810 O.2   227  PRO227     -0.2715
    135  CB        52.5760   15.9120   50.6710 C.3   227  PRO227      0.0310
    136  CG        52.9540   16.8830   49.5820 C.3   227  PRO227      0.0237
    137  CD        52.1090   18.0540   49.9150 C.3   227  PRO227      0.0939
    138  N         54.1390   15.5280   53.2420 N.am  228  GLY228     -0.1955
    139  CA        55.3370   15.3490   54.0380 C.3   228  GLY228      0.1869
    140  C         56.4120   14.7490   53.1930 C.2   228  GLY228      0.2309
    141  O         56.0880   13.9250   52.3480 O.2   228  GLY228     -0.2863
    142  N         59.9080   12.4810   52.6680 N.3   230  TYR230     -0.1241
    143  CA        60.6380   11.3580   53.2390 C.3   230  TYR230      0.1605
    144  C         61.8230   10.9600   52.3720 C.2   230  TYR230      0.2264
    145  O         61.7790   11.0860   51.1590 O.2   230  TYR230     -0.2867
    146  CB        59.6950   10.1400   53.3720 C.3   230  TYR230      0.0534
    147  CG        58.4190   10.4090   54.1500 C.ar  230  TYR230     -0.0201
    148  CD1       57.3930   11.1840   53.6100 C.ar  230  TYR230     -0.0009
    149  CD2       58.3060   10.0190   55.4780 C.ar  230  TYR230     -0.0009
    150  CE1       56.3110   11.5790   54.3830 C.ar  230  TYR230      0.0417
    151  CE2       57.2290   10.4140   56.2610 C.ar  230  TYR230      0.0417
    152  CZ        56.2410   11.2020   55.7190 C.ar  230  TYR230      0.1957
    153  OH        55.2540   11.7000   56.5500 O.3   230  TYR230     -0.2866
@<TRIPOS>BOND
     1   130   129    1
     2   136   137    1
     3   136   135    1
     4   137   131    1
     5   129   128    1
     6   135   132    1
     7   128   127    1
     8    97    99   ar
     9    97    95   ar
    10    99    98   ar
    11   122   123    1
    12   145   144    2
    13   131   132    1
    14   131   124   am
    15   111   109    1
    16   123   124    1
    17   123   126    1
    18   132   133    1
    19   127   126    1
    20    95    94   ar
    21    95    93   ar
    22    98    96   ar
    23   124   125    2
    24   141   140    2
    25   144   143    1
    26    94    92   ar
    27   142   143    1
    28   133   134    2
    29   133   138   am
    30   109   110    1
    31   109   108    1
    32   140   139    1
    33   143   146    1
    34   138   139    1
    35   146   147    1
    36    93    96   ar
    37    93    91   ar
    38   148   147   ar
    39   148   150   ar
    40   108   105    1
    41    92    91   ar
    42   147   149   ar
    43   150   152   ar
    44    91    90    1
    45   104   105    1
    46   104   102   am
    47   105   106    1
    48   101   102    1
    49   101   100    1
    50    85    84    1
    51   149   151   ar
    52    89    88    2
    53   107   106    2
    54   102   103    2
    55   152   151   ar
    56   152   153    1
    57    84    81    1
    58    90    87    1
    59   100    88   am
    60    88    87    1
    61   106   112   am
    62    86    87    1
    63    86    82   am
    64    40    39   ar
    65    81    82    1
    66    81    80    1
    67   112   113    1
    68    41    39   ar
    69    82    83    2
    70    80    75   am
    71    39    38    1
    72   115   114    2
    73    73    74    1
    74    74    75    1
    75    74    77    1
    76    38    35    1
    77    75    76    2
    78   113   114    1
    79   114   116   am
    80    35    34    1
    81    35    36    1
    82    47    46    1
    83    78    77    1
    84   118   117    1
    85   118   119    2
    86   116   117    1
    87    77    79    1
    88    42    36   am
    89    42    43    1
    90   117   120    1
    91    24    26   ar
    92    24    23   ar
    93    36    37    2
    94    46    43    1
    95    26    27   ar
    96    45    44    2
    97    43    44    1
    98    22    23    1
    99    22    19    1
   100    18    19    1
   101    23    25   ar
   102    44    48   am
   103   120   121    1
   104    19    20    1
   105   121    53    1
   106    27    25   ar
   107    72    71    1
   108    48    49    1
   109    61    60    2
   110    68    71    1
   111    68    69    1
   112    68    67    1
   113    49    52    1
   114    49    50    1
   115    69    70    2
   116    62    60   am
   117    20    28   am
   118    20    21    2
   119    60    59    1
   120    52    53    1
   121    50    51    2
   122    50    54   am
   123    28    29    1
   124    54    55    1
   125    33    32    1
   126    33    17    1
   127    59    58    1
   128    55    58    1
   129    55    56    1
   130    29    32    1
   131    29    30    1
   132    30    31    2
   133    17    16    1
   134    56    63   am
   135    56    57    2
   136    63    64    1
   137    65    64    1
   138    65    66    2
   139    16    13    1
   140    13    14    1
   141    13    12    1
   142    14    15    2
   143     4     3    2
   144    12     3   am
   145     3     2    1
   146    10     8   ar
   147    10    11   ar
   148     8     6   ar
   149    11     9   ar
   150     6     5    1
   151     6     7   ar
   152     2     5    1
   153     2     1    1
   154     9     7   ar
