@<TRIPOS>MOLECULE
tmp/1bulA00.pdb
 127 119 0 0 0
SMALL
GASTEIGER

@<TRIPOS>ATOM
      1  N         27.1330   17.4210    9.2270 N.3    43  CYS43      -0.1221
      2  CA        25.8500   17.9250    8.7340 C.3    43  CYS43       0.1808
      3  C         25.0620   18.3270    9.9880 C.2    43  CYS43       0.2601
      4  O         25.6710   18.7510   10.9730 O.2    43  CYS43      -0.2717
      5  CB        25.1090   16.8620    7.9090 C.3    43  CYS43       0.0970
      6  SG        26.1010   16.1840    6.5350 S.3    43  CYS43      -0.0800
      7  N         23.7470   18.1520    9.9920 N.am   44  SER44      -0.1952
      8  CA        22.9430   18.5300   11.1610 C.3    44  SER44       0.1924
      9  C         23.1130   17.6220   12.3890 C.2    44  SER44       0.2314
     10  O         22.6170   17.9540   13.4690 O.2    44  SER44      -0.2863
     11  CB        21.4480   18.5810   10.8100 C.3    44  SER44       0.2116
     12  OG        21.0840   19.5410    9.8270 O.3    44  SER44      -0.2180
     13  N         23.8150   18.8000   16.1030 N.3    47  LYS47      -0.1245
     14  CA        22.7630   19.4270   16.9050 C.3    47  LYS47       0.1561
     15  C         22.3500   18.5500   18.0870 C.2    47  LYS47       0.2260
     16  O         21.9570   19.0660   19.1340 O.2    47  LYS47      -0.2867
     17  CB        21.5520   19.7740   16.0380 C.3    47  LYS47       0.0271
     18  CG        21.8580   20.8010   14.9560 C.3    47  LYS47       0.0035
     19  CD        20.7690   20.8460   13.9070 C.3    47  LYS47       0.0206
     20  CE        21.1450   21.8140   12.8090 C.3    47  LYS47       0.1093
     21  NZ        20.1940   21.7410   11.6670 N.3    47  LYS47      -0.1314
     22  N         16.9200   29.0950    7.2500 N.3    78  PHE78      -0.1227
     23  CA        16.1860   28.1350    6.4370 C.3    78  PHE78       0.1736
     24  C         15.9490   26.8860    7.3050 C.2    78  PHE78       0.2595
     25  O         16.8590   26.4140    7.9770 O.2    78  PHE78      -0.2718
     26  CB        17.0470   27.8160    5.2130 C.3    78  PHE78       0.0547
     27  CG        16.4750   26.7790    4.2990 C.ar   78  PHE78      -0.0202
     28  CD1       15.6730   27.1480    3.2250 C.ar   78  PHE78      -0.0042
     29  CD2       16.8250   25.4360    4.4480 C.ar   78  PHE78      -0.0042
     30  CE1       15.2410   26.1970    2.3080 C.ar   78  PHE78      -0.0003
     31  CE2       16.4010   24.4870    3.5460 C.ar   78  PHE78      -0.0003
     32  CZ        15.6110   24.8590    2.4710 C.ar   78  PHE78      -0.0000
     33  N         14.7260   26.3640    7.2890 N.am   79  HIS79      -0.1975
     34  CA        14.3480   25.1940    8.0820 C.3    79  HIS79       0.1656
     35  C         14.3830   25.4990    9.5790 C.2    79  HIS79       0.2291
     36  O         15.2930   25.0850   10.3060 O.2    79  HIS79      -0.2864
     37  CB        15.2130   23.9590    7.7690 C.3    79  HIS79       0.0771
     38  CG        14.7140   22.6980    8.4140 C.ar   79  HIS79       0.0820
     39  ND1       13.5930   22.0270    7.9710 N.ar   79  HIS79      -0.2267
     40  CD2       15.1500   22.0160    9.5000 C.ar   79  HIS79       0.1154
     41  CE1       13.3570   20.9920    8.7590 C.ar   79  HIS79       0.1986
     42  NE2       14.2870   20.9650    9.6960 N.ar   79  HIS79      -0.2212
     43  N         15.7450   19.5090   13.8750 N.3   104  SER104     -0.1217
     44  CA        16.9510   20.0270   13.2330 C.3   104  SER104      0.1889
     45  C         16.7890   21.5310   12.9640 C.2   104  SER104      0.2288
     46  O         17.3620   22.0720   12.0180 O.2   104  SER104     -0.2866
     47  CB        17.1800   19.2800   11.9120 C.3   104  SER104      0.2089
     48  OG        18.5420   18.9470   11.7320 O.3   104  SER104     -0.2183
     49  N         17.1730   25.1550   12.5010 N.3   106  ASN106     -0.1240
     50  CA        18.3660   25.9740   12.3280 C.3   106  ASN106      0.1653
     51  C         18.3450   27.2810   13.1030 C.2   106  ASN106      0.2266
     52  O         19.3960   27.7630   13.5070 O.2   106  ASN106     -0.2867
     53  CB        18.6830   26.2010   10.8460 C.3   106  ASN106      0.1155
     54  CG        19.3160   24.9760   10.1870 C.2   106  ASN106      0.2627
     55  OD1       20.2420   24.3680   10.7320 O.2   106  ASN106     -0.2716
     56  ND2       18.8250   24.6160    9.0070 N.am  106  ASN106     -0.0877
     57  N         25.3140   27.4810   10.7050 N.3   141  GLU141     -0.1231
     58  CA        24.2960   26.9790    9.7960 C.3   141  GLU141      0.1699
     59  C         24.0310   28.1660    8.8650 C.2   141  GLU141      0.2592
     60  O         23.9950   29.3040    9.3250 O.2   141  GLU141     -0.2718
     61  CB        23.0150   26.6120   10.5650 C.3   141  GLU141      0.0402
     62  CG        23.0830   25.2930   11.3310 C.3   141  GLU141      0.1161
     63  CD        23.2100   24.0520   10.4320 C.2   141  GLU141      0.3649
     64  OE1       23.0870   24.1560    9.1920 O.co2 141  GLU141     -0.2457
     65  OE2       23.4310   22.9490   10.9730 O.co2 141  GLU141     -0.2457
     66  N         23.8590   27.9220    7.5700 N.am  142  LEU142     -0.1980
     67  CA        23.9020   26.5870    6.9920 C.3   142  LEU142      0.1596
     68  C         25.1840   26.3590    6.1860 C.2   142  LEU142      0.2287
     69  O         25.2450   25.4470    5.3640 O.2   142  LEU142     -0.2864
     70  CB        22.6710   26.3550    6.1030 C.3   142  LEU142      0.0297
     71  CG        21.3090   26.1480    6.7860 C.3   142  LEU142      0.0022
     72  CD1       20.7310   27.4590    7.2890 C.3   142  LEU142      0.0001
     73  CD2       20.3430   25.5080    5.8080 C.3   142  LEU142      0.0001
     74  N         27.4200   22.8060    5.9000 N.3   145  ASN145     -0.1240
     75  CA        26.9370   21.6850    5.0920 C.3   145  ASN145      0.1653
     76  C         27.5810   21.4550    3.7190 C.2   145  ASN145      0.2266
     77  O         27.1140   20.6020    2.9640 O.2   145  ASN145     -0.2867
     78  CB        25.4210   21.8200    4.9020 C.3   145  ASN145      0.1155
     79  CG        24.6680   21.8590    6.2140 C.2   145  ASN145      0.2627
     80  OD1       24.6400   20.8810    6.9530 O.2   145  ASN145     -0.2716
     81  ND2       24.0500   22.9940    6.5120 N.am  145  ASN145     -0.0877
     82  N         12.8550   12.9800   12.6020 N.3   191  THR191     -0.1218
     83  CA        13.4250   12.8090   11.2630 C.3   191  THR191      0.1862
     84  C         14.2250   11.5510   10.9400 C.2   191  THR191      0.2287
     85  O         14.9760   11.5520    9.9580 O.2   191  THR191     -0.2866
     86  CB        14.3630   13.9880   10.9400 C.3   191  THR191      0.1770
     87  OG1       15.4530   13.9910   11.8750 O.3   191  THR191     -0.2211
     88  CG2       13.6270   15.3180   11.0200 C.3   191  THR191      0.0375
     89  N         16.1050    5.7430    8.4950 N.3   195  ARG195     -0.1245
     90  CA        17.4920    5.3920    8.7660 C.3   195  ARG195      0.1563
     91  C         17.6650    4.3000    9.8270 C.2   195  ARG195      0.2260
     92  O         17.1150    3.2130    9.6550 O.2   195  ARG195     -0.2867
     93  CB        18.3230    6.6610    9.0140 C.3   195  ARG195      0.0307
     94  CG        18.2960    7.5680    7.7680 C.3   195  ARG195      0.0489
     95  CD        19.1190    8.8390    7.8530 C.3   195  ARG195      0.2205
     96  NE        18.9350    9.5970    6.6170 N.pl3 195  ARG195     -0.0865
     97  CZ        19.4120   10.8130    6.3790 C.cat 195  ARG195      0.5346
     98  NH1       20.1230   11.4530    7.2930 N.pl3 195  ARG195      0.1354
     99  NH2       19.1600   11.3970    5.2140 N.pl3 195  ARG195      0.1354
    100  N         19.5820   11.1150   15.9750 N.3   209  LYS209     -0.1231
    101  CA        19.7440   12.4380   15.3790 C.3   209  LYS209      0.1693
    102  C         20.3210   12.2060   13.9830 C.2   209  LYS209      0.2592
    103  O         21.3720   11.5830   13.8350 O.2   209  LYS209     -0.2718
    104  CB        20.6910   13.3370   16.1720 C.3   209  LYS209      0.0285
    105  CG        20.8320   14.7460   15.5500 C.3   209  LYS209      0.0035
    106  CD        19.5060   15.5080   15.6030 C.3   209  LYS209      0.0206
    107  CE        19.5340   16.7900   14.7810 C.3   209  LYS209      0.1093
    108  NZ        19.3810   16.5340   13.3240 N.3   209  LYS209     -0.1314
    109  N         19.5940   12.6530   12.9700 N.am  210  THR210     -0.1953
    110  CA        20.0220   12.5060   11.5850 C.3   210  THR210      0.1897
    111  C         20.7990   13.7370   11.1150 C.2   210  THR210      0.2313
    112  O         20.8440   14.7650   11.8020 O.2   210  THR210     -0.2863
    113  CB        18.8080   12.3310   10.6520 C.3   210  THR210      0.1794
    114  OG1       17.8070   13.2990   10.9900 O.3   210  THR210     -0.2208
    115  CG2       18.2130   10.9480   10.7800 C.3   210  THR210      0.0378
    116  N         21.7480   15.5340    7.1310 N.3   212  SER212     -0.1202
    117  CA        21.7080   15.4550    5.6700 C.3   212  SER212      0.2020
    118  C         22.2290   16.7870    5.1510 C.2   212  SER212      0.2619
    119  O         21.5520   17.8120    5.2580 O.2   212  SER212     -0.2717
    120  CB        20.2770   15.2230    5.1770 C.3   212  SER212      0.2103
    121  OG        19.7140   14.0530    5.7460 O.3   212  SER212     -0.2182
    122  N         23.4390   16.7620    4.6040 N.am  213  CYS213     -0.1969
    123  CA        24.0910   17.9610    4.0870 C.3   213  CYS213      0.1712
    124  C         23.5060   18.5450    2.8020 C.2   213  CYS213      0.2296
    125  O         23.6310   19.7440    2.5450 O.2   213  CYS213     -0.2864
    126  CB        25.5860   17.7030    3.9150 C.3   213  CYS213      0.0983
    127  SG        26.5800   17.8330    5.4400 S.3   213  CYS213     -0.0798
@<TRIPOS>BOND
     1    30    32   ar
     2    30    28   ar
     3    32    31   ar
     4   125   124    2
     5   124   123    1
     6    77    76    2
     7    28    27   ar
     8    31    29   ar
     9    76    75    1
    10   126   123    1
    11   126   127    1
    12   123   122    1
    13    27    29   ar
    14    27    26    1
    15   122   118   am
    16    78    75    1
    17    78    79    1
    18    75    74    1
    19   118   119    2
    20   118   117    1
    21   120   117    1
    22   120   121    1
    23    26    23    1
    24    99    97    1
    25    69    68    2
    26   127     6    1
    27   117   116    1
    28    73    71    1
    29    70    71    1
    30    70    67    1
    31    68    67    1
    32    79    81   am
    33    79    80    2
    34    97    96    2
    35    97    98    1
    36    23    22    1
    37    23    24    1
    38     6     5    1
    39    96    95    1
    40    71    72    1
    41    67    66    1
    42    33    24   am
    43    33    34    1
    44    24    25    2
    45    66    59   am
    46    94    95    1
    47    94    93    1
    48    37    34    1
    49    37    38    1
    50     5     2    1
    51    39    38   ar
    52    39    41   ar
    53    34    35    1
    54    38    40   ar
    55    89    90    1
    56     2     1    1
    57     2     3    1
    58    41    42   ar
    59    90    93    1
    60    90    91    1
    61    59    60    2
    62    59    58    1
    63    56    54   am
    64    64    63   ar
    65    40    42   ar
    66    35    36    2
    67    92    91    2
    68    58    61    1
    69    58    57    1
    70    12    11    1
    71    85    84    2
    72     3     7   am
    73     3     4    2
    74     7     8    1
    75    54    55    2
    76    54    53    1
    77    63    65   ar
    78    63    62    1
    79    61    62    1
    80   113   115    1
    81   113   114    1
    82   113   110    1
    83    11     8    1
    84    53    50    1
    85    84    83    1
    86    86    88    1
    87    86    83    1
    88    86    87    1
    89   111   110    1
    90   111   112    2
    91     8     9    1
    92    83    82    1
    93   110   109    1
    94    21    20    1
    95    48    47    1
    96    47    44    1
    97    46    45    2
    98    50    49    1
    99    50    51    1
   100     9    10    2
   101    20    19    1
   102    45    44    1
   103   109   102   am
   104    51    52    2
   105    44    43    1
   106   108   107    1
   107   103   102    2
   108    19    18    1
   109   102   101    1
   110   107   106    1
   111    18    17    1
   112   101   100    1
   113   101   104    1
   114   105   106    1
   115   105   104    1
   116    17    14    1
   117    13    14    1
   118    14    15    1
   119    15    16    2
