@<TRIPOS>MOLECULE
tmp/1buqA00.pdb
 162 153 0 0 0
SMALL
GASTEIGER

@<TRIPOS>ATOM
      1  N         15.3330    7.9720   -1.0640 N.3    14  TYR14      -0.1241
      2  CA        15.1760    6.5780   -0.5660 C.3    14  TYR14       0.1605
      3  C         15.6410    5.6080   -1.6510 C.2    14  TYR14       0.2264
      4  O         16.3720    4.6720   -1.3920 O.2    14  TYR14      -0.2867
      5  CB        13.6940    6.3440   -0.2370 C.3    14  TYR14       0.0534
      6  CG        13.3610    4.8710   -0.2520 C.ar   14  TYR14      -0.0201
      7  CD1       13.2150    4.2010   -1.4710 C.ar   14  TYR14      -0.0009
      8  CD2       13.1780    4.1830    0.9520 C.ar   14  TYR14      -0.0009
      9  CE1       12.8880    2.8400   -1.4880 C.ar   14  TYR14       0.0417
     10  CE2       12.8540    2.8220    0.9370 C.ar   14  TYR14       0.0417
     11  CZ        12.7070    2.1470   -0.2850 C.ar   14  TYR14       0.1957
     12  OH        12.3770    0.8000   -0.3040 O.3    14  TYR14      -0.2866
     13  N         19.1370    3.4970   -3.1010 N.3    18  LEU18      -0.1245
     14  CA        18.9610    2.1090   -3.5830 C.3    18  LEU18       0.1561
     15  C         19.7080    1.9640   -4.9070 C.2    18  LEU18       0.2260
     16  O         20.6110    1.1640   -5.0500 O.2    18  LEU18      -0.2867
     17  CB        17.4730    1.8770   -3.8240 C.3    18  LEU18       0.0270
     18  CG        16.7880    1.4290   -2.5310 C.3    18  LEU18       0.0019
     19  CD1       15.3660    1.9970   -2.4920 C.3    18  LEU18       0.0001
     20  CD2       16.7270   -0.0990   -2.4910 C.3    18  LEU18       0.0001
     21  N          9.2600   -5.8580    7.0230 N.3    38  ASP38      -0.1225
     22  CA         9.5020   -6.7060    5.8250 C.3    38  ASP38       0.1790
     23  C         10.0340   -8.0770    6.2580 C.2    38  ASP38       0.2439
     24  O         10.6380   -8.1930    7.3030 O.2    38  ASP38      -0.2733
     25  CB        10.5380   -5.9970    4.9470 C.3    38  ASP38       0.1423
     26  CG         9.8580   -5.3930    3.7140 C.2    38  ASP38       0.3668
     27  OD1        9.1260   -6.1080    3.0500 O.co2  38  ASP38      -0.2456
     28  OD2       10.0850   -4.2230    3.4530 O.co2  38  ASP38      -0.2456
     29  N          9.8000   -9.0800    5.4430 N.am   39  PRO39      -0.2729
     30  CA         9.0630   -8.8980    4.1620 C.3    39  PRO39       0.1401
     31  C          7.5610   -8.6910    4.4010 C.2    39  PRO39       0.2269
     32  O          7.0260   -7.6320    4.1400 O.2    39  PRO39      -0.2865
     33  CB         9.3190  -10.2040    3.4140 C.3    39  PRO39       0.0296
     34  CG         9.6160  -11.2150    4.4760 C.3    39  PRO39       0.0237
     35  CD        10.2060  -10.4750    5.6490 C.3    39  PRO39       0.0939
     36  N         17.9980   -3.1810    5.2340 N.3    55  PHE55      -0.1241
     37  CA        18.1070   -2.5290    3.8990 C.3    55  PHE55       0.1605
     38  C         19.4490   -2.9020    3.2700 C.2    55  PHE55       0.2264
     39  O         19.5860   -2.9610    2.0640 O.2    55  PHE55      -0.2867
     40  CB        18.0000   -1.0100    4.0600 C.3    55  PHE55       0.0534
     41  CG        16.8050   -0.5160    3.2760 C.ar   55  PHE55      -0.0203
     42  CD1       16.8950   -0.3380    1.8880 C.ar   55  PHE55      -0.0042
     43  CD2       15.5990   -0.2480    3.9380 C.ar   55  PHE55      -0.0042
     44  CE1       15.7790    0.1060    1.1660 C.ar   55  PHE55      -0.0003
     45  CE2       14.4860    0.1980    3.2140 C.ar   55  PHE55      -0.0003
     46  CZ        14.5780    0.3730    1.8310 C.ar   55  PHE55      -0.0000
     47  N         21.1840   -5.8930    3.8420 N.3    57  ASN57      -0.1225
     48  CA        21.0490   -7.3080    3.4040 C.3    57  ASN57       0.1785
     49  C         20.2180   -7.3360    2.1230 C.2    57  ASN57       0.2597
     50  O         20.4440   -8.1360    1.2370 O.2    57  ASN57      -0.2718
     51  CB        20.3430   -8.1170    4.4940 C.3    57  ASN57       0.1169
     52  CG        20.5790   -9.6090    4.2570 C.2    57  ASN57       0.2627
     53  OD1       20.1290  -10.1580    3.2710 O.2    57  ASN57      -0.2716
     54  ND2       21.2720  -10.2930    5.1260 N.am   57  ASN57      -0.0877
     55  N         19.2650   -6.4520    2.0160 N.am   58  SER58      -0.1952
     56  CA        18.4240   -6.4040    0.7910 C.3    58  SER58       0.1924
     57  C         19.3100   -6.0170   -0.3920 C.2    58  SER58       0.2314
     58  O         19.1420   -6.4970   -1.4960 O.2    58  SER58      -0.2863
     59  CB        17.3280   -5.3520    0.9710 C.3    58  SER58       0.2116
     60  OG        16.7060   -5.1020   -0.2820 O.3    58  SER58      -0.2180
     61  N         21.4190   -8.4610   -2.7940 N.3    61  LEU61      -0.1245
     62  CA        20.9210   -9.0290   -4.0730 C.3    61  LEU61       0.1561
     63  C         21.1070   -7.9870   -5.1810 C.2    61  LEU61       0.2260
     64  O         20.5970   -6.8890   -5.0870 O.2    61  LEU61      -0.2867
     65  CB        19.4380   -9.3640   -3.9160 C.3    61  LEU61       0.0270
     66  CG        19.0980  -10.6150   -4.7300 C.3    61  LEU61       0.0019
     67  CD1       18.3070  -11.5910   -3.8570 C.3    61  LEU61       0.0001
     68  CD2       18.2520  -10.2250   -5.9410 C.3    61  LEU61       0.0001
     69  N         20.1870   -6.1810   -8.0930 N.3    63  LEU63      -0.1245
     70  CA        18.9860   -5.9650   -8.9500 C.3    63  LEU63       0.1561
     71  C         18.9860   -4.5330   -9.4760 C.2    63  LEU63       0.2260
     72  O         19.8740   -3.7530   -9.1960 O.2    63  LEU63      -0.2867
     73  CB        17.7050   -6.1700   -8.1470 C.3    63  LEU63       0.0270
     74  CG        17.9630   -7.0580   -6.9350 C.3    63  LEU63       0.0019
     75  CD1       18.2130   -6.1810   -5.7060 C.3    63  LEU63       0.0001
     76  CD2       16.7330   -7.9350   -6.6920 C.3    63  LEU63       0.0001
     77  N          7.4610   -0.0640   -7.5560 N.3    82  PHE82      -0.1241
     78  CA         8.4990   -0.0150   -8.6210 C.3    82  PHE82       0.1605
     79  C          8.7420   -1.4210   -9.1540 C.2    82  PHE82       0.2264
     80  O          7.9210   -2.3050   -9.0140 O.2    82  PHE82      -0.2867
     81  CB         9.8060    0.5360   -8.0500 C.3    82  PHE82       0.0534
     82  CG        10.3460   -0.4120   -7.0060 C.ar   82  PHE82      -0.0203
     83  CD1        9.6810   -0.5610   -5.7830 C.ar   82  PHE82      -0.0042
     84  CD2       11.5130   -1.1410   -7.2620 C.ar   82  PHE82      -0.0042
     85  CE1       10.1840   -1.4390   -4.8150 C.ar   82  PHE82      -0.0003
     86  CE2       12.0160   -2.0190   -6.2940 C.ar   82  PHE82      -0.0003
     87  CZ        11.3520   -2.1680   -5.0710 C.ar   82  PHE82      -0.0000
     88  N         16.7410   -8.2470  -11.4820 N.3    86  PHE86      -0.1241
     89  CA        18.0190   -8.8860  -11.0700 C.3    86  PHE86       0.1605
     90  C         18.2180  -10.1740  -11.8740 C.2    86  PHE86       0.2264
     91  O         17.3860  -10.5450  -12.6780 O.2    86  PHE86      -0.2867
     92  CB        17.9700   -9.2010   -9.5740 C.3    86  PHE86       0.0534
     93  CG        17.0310  -10.3580   -9.3260 C.ar   86  PHE86      -0.0203
     94  CD1       15.6470  -10.1620   -9.4000 C.ar   86  PHE86      -0.0042
     95  CD2       17.5440  -11.6240   -9.0230 C.ar   86  PHE86      -0.0042
     96  CE1       14.7750  -11.2340   -9.1710 C.ar   86  PHE86      -0.0003
     97  CE2       16.6720  -12.6960   -8.7940 C.ar   86  PHE86      -0.0003
     98  CZ        15.2880  -12.5010   -8.8680 C.ar   86  PHE86      -0.0000
     99  N         19.3140  -14.4980  -12.1120 N.3    88  PHE88      -0.1241
    100  CA        19.1560  -15.7280  -11.2870 C.3    88  PHE88       0.1605
    101  C         20.3790  -16.6300  -11.4790 C.2    88  PHE88       0.2264
    102  O         21.4220  -16.1910  -11.9210 O.2    88  PHE88      -0.2867
    103  CB        17.8990  -16.4780  -11.7230 C.3    88  PHE88       0.0534
    104  CG        16.9700  -16.6450  -10.5430 C.ar   88  PHE88      -0.0203
    105  CD1       17.4950  -16.8600   -9.2630 C.ar   88  PHE88      -0.0042
    106  CD2       15.5840  -16.5860  -10.7310 C.ar   88  PHE88      -0.0042
    107  CE1       16.6330  -17.0170   -8.1700 C.ar   88  PHE88      -0.0003
    108  CE2       14.7220  -16.7430   -9.6380 C.ar   88  PHE88      -0.0003
    109  CZ        15.2470  -16.9580   -8.3580 C.ar   88  PHE88      -0.0000
    110  N         15.3340  -12.7930  -13.5940 N.3    93  THR93      -0.1218
    111  CA        14.0060  -12.6440  -12.9380 C.3    93  THR93       0.1862
    112  C         13.7980  -11.1870  -12.5140 C.2    93  THR93       0.2287
    113  O         14.7150  -10.5200  -12.0780 O.2    93  THR93      -0.2866
    114  CB        13.9580  -13.5400  -11.7020 C.3    93  THR93       0.1770
    115  OG1       15.2230  -14.1600  -11.5180 O.3    93  THR93      -0.2211
    116  CG2       12.8860  -14.6100  -11.8940 C.3    93  THR93       0.0375
    117  N         11.0260   -8.1710  -10.4870 N.3    95  VAL95      -0.1245
    118  CA        10.0700   -8.1530   -9.3400 C.3    95  VAL95       0.1561
    119  C          9.2290   -6.8720   -9.3870 C.2    95  VAL95       0.2260
    120  O          9.6990   -5.8190   -9.7700 O.2    95  VAL95      -0.2867
    121  CB        10.8600   -8.2330   -8.0270 C.3    95  VAL95       0.0252
    122  CG1       10.0330   -7.6730   -6.8660 C.3    95  VAL95       0.0019
    123  CG2       11.1940   -9.6940   -7.7390 C.3    95  VAL95       0.0019
    124  N          7.0210   -5.2720   -6.6850 N.3    97  PRO97      -0.2116
    125  CA         6.3990   -5.1080   -5.3590 C.3    97  PRO97       0.1372
    126  C          6.0270   -3.6440   -5.1060 C.2    97  PRO97       0.2244
    127  O          6.2020   -2.7880   -5.9510 O.2    97  PRO97      -0.2868
    128  CB         7.5220   -5.5300   -4.4180 C.3    97  PRO97       0.0268
    129  CG         8.8030   -5.2930   -5.1790 C.3    97  PRO97       0.0207
    130  CD         8.4500   -5.0020   -6.6240 C.3    97  PRO97       0.0892
    131  N          6.1810   -0.5060   -1.9100 N.3    99  ASP99      -0.1239
    132  CA         6.6700   -0.2050   -0.5420 C.3    99  ASP99       0.1674
    133  C          5.8000    0.8690    0.1060 C.2    99  ASP99       0.2266
    134  O          5.0680    1.5800   -0.5550 O.2    99  ASP99      -0.2867
    135  CB         8.1010    0.2920   -0.6270 C.3    99  ASP99       0.1410
    136  CG         8.8650   -0.1150    0.6350 C.2    99  ASP99       0.3668
    137  OD1        8.3690   -0.9630    1.3570 O.co2  99  ASP99      -0.2456
    138  OD2       10.0750    0.5060    0.8750 O.co2  99  ASP99      -0.2456
    139  N          6.1580   -2.2550    3.7280 N.3   114  ALA114     -0.1245
    140  CA         6.4110   -2.8190    2.3720 C.3   114  ALA114      0.1562
    141  C          5.3110   -3.8240    2.0260 C.2   114  ALA114      0.2260
    142  O          4.7620   -4.4770    2.8910 O.2   114  ALA114     -0.2867
    143  CB         7.7680   -3.5250    2.3590 C.3   114  ALA114      0.0290
    144  N          3.9320   -6.8450   -1.0630 N.3   116  PHE116     -0.1241
    145  CA         4.2090   -7.6060   -2.3160 C.3   116  PHE116      0.1605
    146  C          3.8870   -9.0730   -2.0690 C.2   116  PHE116      0.2264
    147  O          3.1060   -9.4120   -1.2030 O.2   116  PHE116     -0.2867
    148  CB         5.6820   -7.4790   -2.7190 C.3   116  PHE116      0.0534
    149  CG         6.5530   -8.1910   -1.7140 C.ar  116  PHE116     -0.0203
    150  CD1        6.7400   -7.6450   -0.4400 C.ar  116  PHE116     -0.0042
    151  CD2        7.1750   -9.3980   -2.0580 C.ar  116  PHE116     -0.0042
    152  CE1        7.5490   -8.3050    0.4930 C.ar  116  PHE116     -0.0003
    153  CE2        7.9830  -10.0590   -1.1250 C.ar  116  PHE116     -0.0003
    154  CZ         8.1700   -9.5120    0.1500 C.ar  116  PHE116     -0.0000
    155  N          6.0490  -11.0420   -8.1500 N.3   121  ILE121     -0.1245
    156  CA         7.4370  -11.3670   -8.5790 C.3   121  ILE121      0.1561
    157  C          7.4560  -11.4960  -10.1040 C.2   121  ILE121      0.2260
    158  O          6.4980  -11.1560  -10.7670 O.2   121  ILE121     -0.2867
    159  CB         7.8760  -12.6870   -7.9400 C.3   121  ILE121      0.0252
    160  CG1        7.2870  -12.7860   -6.5320 C.3   121  ILE121      0.0019
    161  CG2        9.4030  -12.7350   -7.8510 C.3   121  ILE121      0.0019
    162  CD1        7.7870  -11.6140   -5.6840 C.3   121  ILE121      0.0001
@<TRIPOS>BOND
     1   110   111    1
     2   111   112    1
     3   111   114    1
     4    91    90    2
     5   112   113    2
     6    99   100    1
     7   102   101    2
     8   116   114    1
     9    90    89    1
    10   103   100    1
    11   103   104    1
    12   114   115    1
    13    88    89    1
    14   101   100    1
    15    89    92    1
    16   158   157    2
    17   106   104   ar
    18   106   108   ar
    19   104   105   ar
    20   117   118    1
    21   157   156    1
    22   120   119    2
    23   108   109   ar
    24    92    93    1
    25    71    72    2
    26    71    70    1
    27    94    93   ar
    28    94    96   ar
    29   119   118    1
    30   118   121    1
    31    93    95   ar
    32   105   107   ar
    33    96    98   ar
    34    79    80    2
    35    79    78    1
    36    95    97   ar
    37    70    73    1
    38    70    69    1
    39    98    97   ar
    40    78    81    1
    41    78    77    1
    42   156   155    1
    43   156   159    1
    44   109   107   ar
    45    73    74    1
    46    81    82    1
    47   121   123    1
    48   121   122    1
    49   159   161    1
    50   159   160    1
    51    84    82   ar
    52    84    86   ar
    53    82    83   ar
    54    74    76    1
    55    74    75    1
    56   124   130    1
    57   124   125    1
    58   130   129    1
    59   160   162    1
    60    86    87   ar
    61   127   126    2
    62    68    66    1
    63    83    85   ar
    64   125   126    1
    65   125   128    1
    66    63    64    2
    67    63    62    1
    68   129   128    1
    69    87    85   ar
    70    16    15    2
    71    15    14    1
    72    66    65    1
    73    66    67    1
    74    62    65    1
    75    62    61    1
    76    17    14    1
    77    17    18    1
    78    14    13    1
    79   148   145    1
    80   148   149    1
    81    18    19    1
    82    18    20    1
    83   145   146    1
    84   145   144    1
    85   146   147    2
    86   151   149   ar
    87   151   153   ar
    88   131   132    1
    89   149   150   ar
    90     3     4    2
    91     3     2    1
    92    58    57    2
    93     9     7   ar
    94     9    11   ar
    95     7     6   ar
    96   153   154   ar
    97     1     2    1
    98   135   132    1
    99   135   136    1
   100     2     5    1
   101   134   133    2
   102   132   133    1
   103   150   152   ar
   104    57    56    1
   105    12    11    1
   106    11    10   ar
   107    60    59    1
   108     6     5    1
   109     6     8   ar
   110   154   152   ar
   111   136   138   ar
   112   136   137   ar
   113    56    59    1
   114    56    55    1
   115    10     8   ar
   116    44    46   ar
   117    44    42   ar
   118    50    49    2
   119    46    45   ar
   120    42    41   ar
   121    55    49   am
   122   141   140    1
   123   141   142    2
   124    39    38    2
   125    49    48    1
   126   143   140    1
   127   140   139    1
   128    27    26   ar
   129    45    43   ar
   130    38    37    1
   131    53    52    2
   132    41    43   ar
   133    41    40    1
   134    48    47    1
   135    48    51    1
   136    33    30    1
   137    33    34    1
   138    28    26   ar
   139    26    25    1
   140    37    40    1
   141    37    36    1
   142    32    31    2
   143    30    31    1
   144    30    29    1
   145    52    51    1
   146    52    54   am
   147    34    35    1
   148    25    22    1
   149    29    35    1
   150    29    23   am
   151    22    23    1
   152    22    21    1
   153    23    24    2
