@<TRIPOS>MOLECULE
tmp/1buxC00.pdb
 152 143 0 0 0
SMALL
GASTEIGER

@<TRIPOS>ATOM
      1  N         52.4800    4.6810   21.6970 N.3    11  LYS11      -0.1245
      2  CA        53.1860    3.4130   21.5830 C.3    11  LYS11       0.1561
      3  C         54.4730    3.4440   22.4080 C.2    11  LYS11       0.2260
      4  O         54.9470    4.5210   22.7990 O.2    11  LYS11      -0.2867
      5  CB        53.4470    3.1010   20.1040 C.3    11  LYS11       0.0271
      6  CG        52.1800    3.2450   19.2390 C.3    11  LYS11       0.0035
      7  CD        52.2610    2.5330   17.8900 C.3    11  LYS11       0.0206
      8  CE        53.4920    2.9550   17.0890 C.3    11  LYS11       0.1093
      9  NZ        53.3040    2.6220   15.6560 N.3    11  LYS11      -0.1314
     10  N         45.6450   -5.0730   15.3410 N.3    51  TYR51      -0.1241
     11  CA        46.1510   -4.9570   13.9670 C.3    51  TYR51       0.1605
     12  C         45.6140   -5.9710   12.9410 C.2    51  TYR51       0.2264
     13  O         46.2630   -6.2360   11.9160 O.2    51  TYR51      -0.2867
     14  CB        47.6710   -5.0170   13.9870 C.3    51  TYR51       0.0534
     15  CG        48.2610   -3.7550   14.5340 C.ar   51  TYR51      -0.0201
     16  CD1       47.4950   -2.5840   14.6060 C.ar   51  TYR51      -0.0009
     17  CD2       49.5640   -3.7200   15.0060 C.ar   51  TYR51      -0.0009
     18  CE1       48.0130   -1.4210   15.1390 C.ar   51  TYR51       0.0417
     19  CE2       50.0920   -2.5500   15.5520 C.ar   51  TYR51       0.0417
     20  CZ        49.3070   -1.4090   15.6150 C.ar   51  TYR51       0.1957
     21  OH        49.7990   -0.2700   16.1960 O.3    51  TYR51      -0.2866
     22  N         43.3410   -5.9460   10.4690 N.3    53  GLU53      -0.1231
     23  CA        43.3350   -5.5780    9.0530 C.3    53  GLU53       0.1699
     24  C         44.6890   -5.6280    8.3420 C.2    53  GLU53       0.2592
     25  O         44.7590   -5.4050    7.1420 O.2    53  GLU53      -0.2718
     26  CB        42.7390   -4.1810    8.8830 C.3    53  GLU53       0.0402
     27  CG        43.6000   -3.0730    9.4940 C.3    53  GLU53       0.1161
     28  CD        42.9590   -1.6880    9.4420 C.2    53  GLU53       0.3649
     29  OE1       41.8420   -1.5520    8.8870 O.co2  53  GLU53      -0.2457
     30  OE2       43.5840   -0.7310    9.9660 O.co2  53  GLU53      -0.2457
     31  N         45.7620   -5.9030    9.0730 N.am   54  HIS54      -0.1976
     32  CA        47.0960   -5.9600    8.4770 C.3    54  HIS54       0.1656
     33  C         47.7450   -7.3140    8.7150 C.2    54  HIS54       0.2291
     34  O         48.9640   -7.4450    8.6220 O.2    54  HIS54      -0.2864
     35  CB        47.9830   -4.8420    9.0390 C.3    54  HIS54       0.0771
     36  CG        47.3870   -3.4760    8.8920 C.ar   54  HIS54       0.0820
     37  ND1       47.0590   -2.9360    7.6670 N.ar   54  HIS54      -0.2267
     38  CD2       47.0040   -2.5670    9.8180 C.ar   54  HIS54       0.1154
     39  CE1       46.4950   -1.7550    7.8450 C.ar   54  HIS54       0.1986
     40  NE2       46.4500   -1.5090    9.1390 N.ar   54  HIS54      -0.2212
     41  N         50.3510   -8.6190    6.0100 N.3    57  ARG57      -0.1245
     42  CA        51.1990   -7.5700    5.4980 C.3    57  ARG57       0.1563
     43  C         52.5800   -7.8420    6.0260 C.2    57  ARG57       0.2260
     44  O         52.7330   -8.3430    7.1360 O.2    57  ARG57      -0.2867
     45  CB        50.6810   -6.2390    6.0030 C.3    57  ARG57       0.0307
     46  CG        49.1900   -6.1070    5.7910 C.3    57  ARG57       0.0489
     47  CD        48.8910   -5.9900    4.3220 C.3    57  ARG57       0.2205
     48  NE        49.5400   -4.7930    3.7990 N.pl3  57  ARG57      -0.0865
     49  CZ        48.9820   -3.5860    3.7890 C.cat  57  ARG57       0.5346
     50  NH1       47.7350   -3.4160    4.2310 N.pl3  57  ARG57       0.1354
     51  NH2       49.6590   -2.5540    3.3060 N.pl3  57  ARG57       0.1354
     52  N         54.8570   -5.9690    7.3330 N.3    59  PHE59      -0.1241
     53  CA        55.1930   -5.2860    8.5760 C.3    59  PHE59       0.1605
     54  C         54.4520   -5.7800    9.8200 C.2    59  PHE59       0.2264
     55  O         54.9520   -5.6270   10.9300 O.2    59  PHE59      -0.2867
     56  CB        55.0030   -3.7680    8.4150 C.3    59  PHE59       0.0534
     57  CG        53.5790   -3.3450    8.2000 C.ar   59  PHE59      -0.0203
     58  CD1       52.6540   -3.4130    9.2370 C.ar   59  PHE59      -0.0042
     59  CD2       53.1650   -2.8830    6.9650 C.ar   59  PHE59      -0.0042
     60  CE1       51.3400   -3.0340    9.0420 C.ar   59  PHE59      -0.0003
     61  CE2       51.8510   -2.5010    6.7600 C.ar   59  PHE59      -0.0003
     62  CZ        50.9350   -2.5750    7.7980 C.ar   59  PHE59      -0.0000
     63  N         56.4680   -7.0900   12.7570 N.3    62  GLY62      -0.1210
     64  CA        57.0530   -6.1180   13.6760 C.3    62  GLY62       0.1956
     65  C         56.0960   -5.2410   14.4720 C.2    62  GLY62       0.2611
     66  O         56.4370   -4.7530   15.5550 O.2    62  GLY62      -0.2717
     67  N         54.9060   -5.0220   13.9290 N.am   63  LEU63      -0.1979
     68  CA        53.9130   -4.2250   14.6020 C.3    63  LEU63       0.1596
     69  C         53.5440   -4.8680   15.9160 C.2    63  LEU63       0.2287
     70  O         53.7030   -4.2530   16.9730 O.2    63  LEU63      -0.2864
     71  CB        52.6730   -4.0590   13.7380 C.3    63  LEU63       0.0297
     72  CG        52.7570   -2.7860   12.9130 C.3    63  LEU63       0.0022
     73  CD1       51.3960   -2.4920   12.3410 C.3    63  LEU63       0.0001
     74  CD2       53.2120   -1.6270   13.7960 C.3    63  LEU63       0.0001
     75  N         43.6800   12.2810   13.9180 N.3    87  ARG87      -0.1245
     76  CA        44.5410   11.8520   12.8090 C.3    87  ARG87       0.1563
     77  C         45.3010   13.0600   12.2140 C.2    87  ARG87       0.2260
     78  O         46.5240   13.0130   12.0700 O.2    87  ARG87      -0.2867
     79  CB        43.7160   11.1550   11.7060 C.3    87  ARG87       0.0307
     80  CG        43.2310    9.6960   12.0330 C.3    87  ARG87       0.0489
     81  CD        44.3190    8.4760   11.9660 C.3    87  ARG87       0.2205
     82  NE        44.6350    8.0560   10.5750 N.pl3  87  ARG87      -0.0865
     83  CZ        45.4820    7.0690   10.2110 C.cat  87  ARG87       0.5346
     84  NH1       45.7460    6.0450   11.0450 N.pl3  87  ARG87       0.1354
     85  NH2       45.7100    6.8240    8.8960 N.pl3  87  ARG87       0.1354
     86  N         51.5340    8.6220    8.2500 N.3    93  THR93      -0.1218
     87  CA        52.2810    7.4110    8.5750 C.3    93  THR93       0.1862
     88  C         53.7900    7.6070    8.6630 C.2    93  THR93       0.2287
     89  O         54.4040    7.2710    9.6740 O.2    93  THR93      -0.2866
     90  CB        51.9410    6.3000    7.5500 C.3    93  THR93       0.1770
     91  OG1       51.3380    6.9030    6.3870 O.3    93  THR93      -0.2211
     92  CG2       50.9450    5.2910    8.1570 C.3    93  THR93       0.0375
     93  N         53.6850   13.3560   14.7820 N.3   104  ARG104     -0.1245
     94  CA        54.7220   12.6360   14.0580 C.3   104  ARG104      0.1563
     95  C         55.6290   13.5690   13.3170 C.2   104  ARG104      0.2260
     96  O         56.8020   13.2850   13.1500 O.2   104  ARG104     -0.2867
     97  CB        54.1280   11.6310   13.0840 C.3   104  ARG104      0.0307
     98  CG        53.3150   10.5520   13.7600 C.3   104  ARG104      0.0489
     99  CD        53.2040    9.3230   12.9050 C.3   104  ARG104      0.2205
    100  NE        51.8490    9.0780   12.3970 N.pl3 104  ARG104     -0.0865
    101  CZ        51.0080    8.1720   12.8990 C.cat 104  ARG104      0.5346
    102  NH1       51.3380    7.4710   13.9760 N.pl3 104  ARG104      0.1354
    103  NH2       49.8050    8.0120   12.3670 N.pl3 104  ARG104      0.1354
    104  N         59.1950    5.2250   10.2160 N.3   111  VAL111     -0.1231
    105  CA        57.8340    4.6740   10.1270 C.3   111  VAL111      0.1692
    106  C         57.6810    3.5800   11.1940 C.2   111  VAL111      0.2592
    107  O         56.5910    3.3520   11.7190 O.2   111  VAL111     -0.2718
    108  CB        57.5470    4.0230    8.7230 C.3   111  VAL111      0.0266
    109  CG1       56.0820    3.7820    8.5270 C.3   111  VAL111      0.0020
    110  CG2       58.0750    4.9020    7.6010 C.3   111  VAL111      0.0020
    111  N         58.7870    2.9120   11.5190 N.am  112  GLY112     -0.1957
    112  CA        58.7710    1.8400   12.5100 C.3   112  GLY112      0.1869
    113  C         58.4880    2.3150   13.9160 C.2   112  GLY112      0.2309
    114  O         57.7920    1.6410   14.6780 O.2   112  GLY112     -0.2863
    115  N         56.8490    5.4300   15.1010 N.3   114  ASN114     -0.1240
    116  CA        56.1490    6.6740   14.8630 C.3   114  ASN114      0.1653
    117  C         55.2330    7.1850   15.9560 C.2   114  ASN114      0.2266
    118  O         54.1950    7.8070   15.7010 O.2   114  ASN114     -0.2867
    119  CB        55.4310    6.6710   13.5140 C.3   114  ASN114      0.1155
    120  CG        54.4590    5.5520   13.3770 C.2   114  ASN114      0.2627
    121  OD1       54.0600    4.9260   14.3690 O.2   114  ASN114     -0.2716
    122  ND2       54.0620    5.2800   12.1410 N.am  114  ASN114     -0.0877
    123  N         52.5990    7.2860   18.0110 N.3   116  ILE116     -0.1231
    124  CA        51.2210    7.1600   18.4440 C.3   116  ILE116      0.1692
    125  C         50.3290    6.5200   17.3730 C.2   116  ILE116      0.2592
    126  O         50.7310    6.3580   16.2150 O.2   116  ILE116     -0.2718
    127  CB        50.7340    8.6460   18.8710 C.3   116  ILE116      0.0266
    128  CG1       49.2930    8.7050   19.3490 C.3   116  ILE116      0.0019
    129  CG2       50.8800    9.6390   17.7190 C.3   116  ILE116      0.0020
    130  CD1       48.9430   10.0930   19.8190 C.3   116  ILE116      0.0001
    131  N         49.1390    6.1120   17.7860 N.am  117  HIS117     -0.1962
    132  CA        48.1920    5.5090   16.8860 C.3   117  HIS117      0.1787
    133  C         46.8500    6.1730   17.1440 C.2   117  HIS117      0.2620
    134  O         46.4670    6.3710   18.2950 O.2   117  HIS117     -0.2715
    135  CB        48.0810    4.0070   17.1740 C.3   117  HIS117      0.0785
    136  CG        46.8570    3.3730   16.5930 C.ar  117  HIS117      0.0821
    137  ND1       46.7460    3.0550   15.2560 N.ar  117  HIS117     -0.2267
    138  CD2       45.6540    3.0780   17.1450 C.ar  117  HIS117      0.1154
    139  CE1       45.5350    2.6030   15.0090 C.ar  117  HIS117      0.1986
    140  NE2       44.8500    2.6080   16.1390 N.ar  117  HIS117     -0.2212
    141  N         46.1220    6.4960   16.0800 N.am  118  GLY118     -0.1954
    142  CA        44.8070    7.0930   16.2290 C.3   118  GLY118      0.1869
    143  C         43.8740    6.2950   15.3520 C.2   118  GLY118      0.2309
    144  O         44.2890    5.7950   14.3090 O.2   118  GLY118     -0.2863
    145  N         41.3010    5.4460   12.6050 N.3   120  ASP120     -0.1239
    146  CA        41.1000    6.0800   11.2960 C.3   120  ASP120      0.1674
    147  C         39.6510    6.3650   10.9280 C.2   120  ASP120      0.2266
    148  O         39.3830    7.2070   10.0820 O.2   120  ASP120     -0.2867
    149  CB        41.7710    5.2620   10.1750 C.3   120  ASP120      0.1410
    150  CG        41.2660    3.8250   10.0950 C.2   120  ASP120      0.3668
    151  OD1       40.3900    3.4370   10.9040 O.co2 120  ASP120     -0.2456
    152  OD2       41.7570    3.0760    9.2180 O.co2 120  ASP120     -0.2456
@<TRIPOS>BOND
     1    51    49    1
     2    49    48    2
     3    49    50    1
     4    48    47    1
     5    47    46    1
     6    42    45    1
     7    42    41    1
     8    42    43    1
     9    46    45    1
    10    43    44    2
    11    91    90    1
    12    61    59   ar
    13    61    62   ar
    14    59    57   ar
    15    25    24    2
    16    52    53    1
    17    90    92    1
    18    90    87    1
    19   110   108    1
    20    37    39   ar
    21    37    36   ar
    22    62    60   ar
    23    39    40   ar
    24    57    56    1
    25    57    58   ar
    26    86    87    1
    27    24    23    1
    28    24    31   am
    29    56    53    1
    30    32    33    1
    31    32    35    1
    32    32    31    1
    33   109   108    1
    34    87    88    1
    35    53    54    1
    36    34    33    2
    37    88    89    2
    38   108   105    1
    39    26    23    1
    40    26    27    1
    41    29    28   ar
    42    36    35    1
    43    36    38   ar
    44    85    83    1
    45    60    58   ar
    46    23    22    1
    47    40    38   ar
    48   152   150   ar
    49    28    27    1
    50    28    30   ar
    51    54    55    2
    52   148   147    2
    53   150   149    1
    54   150   151   ar
    55   105   104    1
    56   105   106    1
    57   149   146    1
    58    83    82    2
    59    83    84    1
    60    82    81    1
    61   147   146    1
    62   106   111   am
    63   106   107    2
    64   146   145    1
    65   111   112    1
    66    79    80    1
    67    79    76    1
    68    13    12    2
    69    81    80    1
    70    78    77    2
    71   122   120   am
    72    77    76    1
    73    73    72    1
    74   103   101    1
    75   100   101    2
    76   100    99    1
    77   112   113    1
    78    63    64    1
    79    76    75    1
    80   101   102    1
    81    99    98    1
    82    72    71    1
    83    72    74    1
    84    12    11    1
    85    97    98    1
    86    97    94    1
    87    96    95    2
    88    95    94    1
    89   120   119    1
    90   120   121    2
    91   119   116    1
    92    64    65    1
    93    71    68    1
    94   113   114    2
    95    67    65   am
    96    67    68    1
    97    11    14    1
    98    11    10    1
    99    14    15    1
   100    94    93    1
   101   144   143    2
   102    65    66    2
   103    15    16   ar
   104    15    17   ar
   105    68    69    1
   106    16    18   ar
   107   116   115    1
   108   116   117    1
   109    17    19   ar
   110   139   137   ar
   111   139   140   ar
   112    18    20   ar
   113   137   136   ar
   114   143   142    1
   115    19    20   ar
   116    20    21    1
   117     9     8    1
   118   118   117    2
   119    69    70    2
   120   141   142    1
   121   141   133   am
   122   140   138   ar
   123   126   125    2
   124   136   138   ar
   125   136   135    1
   126   132   133    1
   127   132   135    1
   128   132   131    1
   129     8     7    1
   130   133   134    2
   131   125   131   am
   132   125   124    1
   133   129   127    1
   134     7     6    1
   135   123   124    1
   136   124   127    1
   137   127   128    1
   138     6     5    1
   139   128   130    1
   140     5     2    1
   141     2     1    1
   142     2     3    1
   143     3     4    2
