@<TRIPOS>MOLECULE
tmp/1bv7A00.pdb
 144 138 0 0 0
SMALL
GASTEIGER

@<TRIPOS>ATOM
      1  N         -6.4400   28.6460   21.4960 N.3     8  ARG8       -0.1245
      2  CA        -6.5840   28.1580   22.8740 C.3     8  ARG8        0.1563
      3  C         -6.7100   29.2660   23.8910 C.2     8  ARG8        0.2260
      4  O         -5.9150   30.1950   23.8660 O.2     8  ARG8       -0.2867
      5  CB        -5.3400   27.3820   23.3000 C.3     8  ARG8        0.0307
      6  CG        -5.1310   26.0990   22.5310 C.3     8  ARG8        0.0489
      7  CD        -4.1410   25.1410   23.1820 C.3     8  ARG8        0.2205
      8  NE        -3.8420   24.1050   22.1880 N.pl3   8  ARG8       -0.0865
      9  CZ        -2.7250   23.3560   22.2350 C.cat   8  ARG8        0.5346
     10  NH1       -1.9550   23.2920   23.3230 N.pl3   8  ARG8        0.1354
     11  NH2       -2.3650   22.6720   21.1520 N.pl3   8  ARG8        0.1354
     12  N         -4.6360   26.2960   30.5380 N.3    23  LEU23      -0.1245
     13  CA        -5.7610   26.2950   29.6190 C.3    23  LEU23       0.1561
     14  C         -7.0600   26.3720   30.3940 C.2    23  LEU23       0.2260
     15  O         -7.2040   25.7760   31.4540 O.2    23  LEU23      -0.2867
     16  CB        -5.6450   24.9730   28.8220 C.3    23  LEU23       0.0270
     17  CG        -6.5870   24.7220   27.6580 C.3    23  LEU23       0.0019
     18  CD1       -6.3580   25.6940   26.5260 C.3    23  LEU23       0.0001
     19  CD2       -6.2640   23.3630   27.1110 C.3    23  LEU23       0.0001
     20  N        -10.7110   25.2340   30.8060 N.3    25  ASP25      -0.1239
     21  CA       -11.1970   24.0440   30.1570 C.3    25  ASP25       0.1674
     22  C        -12.5580   23.5790   30.6250 C.2    25  ASP25       0.2266
     23  O        -12.6910   22.8490   31.5790 O.2    25  ASP25      -0.2867
     24  CB       -10.0930   23.0080   30.3620 C.3    25  ASP25       0.1410
     25  CG       -10.3430   21.7260   29.5950 C.2    25  ASP25       0.3668
     26  OD1      -11.4580   21.5010   29.1210 O.co2  25  ASP25      -0.2456
     27  OD2       -9.4080   20.9450   29.4760 O.co2  25  ASP25      -0.2456
     28  N        -14.5170   21.2850   29.6360 N.3    27  GLY27      -0.1210
     29  CA       -14.8410   19.8750   29.8380 C.3    27  GLY27       0.1956
     30  C        -14.2000   19.2320   31.0730 C.2    27  GLY27       0.2612
     31  O        -14.3700   18.0630   31.3740 O.2    27  GLY27      -0.2717
     32  N        -13.3640   19.9570   31.7740 N.am   28  ALA28      -0.1965
     33  CA       -12.5980   19.2160   32.7630 C.3    28  ALA28       0.1728
     34  C        -13.2500   19.4500   34.0970 C.2    28  ALA28       0.2616
     35  O        -13.4970   20.5740   34.5030 O.2    28  ALA28      -0.2715
     36  CB       -11.1790   19.7450   32.7440 C.3    28  ALA28       0.0334
     37  N        -13.5430   18.3770   34.8050 N.am   29  ASP29      -0.1957
     38  CA       -14.1070   18.6040   36.1470 C.3    29  ASP29       0.1840
     39  C        -13.1140   19.1290   37.1460 C.2    29  ASP29       0.2622
     40  O        -13.4760   19.7980   38.0910 O.2    29  ASP29      -0.2715
     41  CB       -14.6060   17.3330   36.8420 C.3    29  ASP29       0.1450
     42  CG       -15.6310   16.5630   36.0490 C.2    29  ASP29       0.3671
     43  OD1      -16.3170   17.1400   35.1990 O.co2  29  ASP29      -0.2456
     44  OD2      -15.7480   15.3580   36.2890 O.co2  29  ASP29      -0.2456
     45  N        -11.8620   18.7880   36.9220 N.am   30  ASP30      -0.1971
     46  CA       -10.8060   19.1270   37.8660 C.3    30  ASP30       0.1709
     47  C         -9.6550   19.8350   37.2240 C.2    30  ASP30       0.2293
     48  O         -9.3910   19.6960   36.0430 O.2    30  ASP30      -0.2864
     49  CB       -10.2360   17.8500   38.4200 C.3    30  ASP30       0.1436
     50  CG       -11.1430   17.3110   39.4700 C.2    30  ASP30       0.3671
     51  OD1      -11.9400   18.0710   40.0240 O.co2  30  ASP30      -0.2456
     52  OD2      -11.0430   16.1220   39.7390 O.co2  30  ASP30      -0.2456
     53  N         -5.8020   20.3340   36.7230 N.3    32  VAL32      -0.1245
     54  CA        -4.6790   19.3890   36.7340 C.3    32  VAL32       0.1561
     55  C         -3.4570   20.1000   36.2190 C.2    32  VAL32       0.2260
     56  O         -3.4920   20.7940   35.2190 O.2    32  VAL32      -0.2867
     57  CB        -4.8570   18.1650   35.8120 C.3    32  VAL32       0.0252
     58  CG1       -3.7480   17.1610   36.0690 C.3    32  VAL32       0.0019
     59  CG2       -6.2270   17.4970   35.9770 C.3    32  VAL32       0.0019
     60  N         -4.3350   10.1080   43.7570 N.3    45  LYS45      -0.1231
     61  CA        -5.6360    9.9930   43.0850 C.3    45  LYS45       0.1693
     62  C         -5.4300    9.5230   41.6430 C.2    45  LYS45       0.2592
     63  O         -4.3230    9.5390   41.1340 O.2    45  LYS45      -0.2718
     64  CB        -6.3750   11.3570   43.1200 C.3    45  LYS45       0.0285
     65  CG        -7.8720   11.2410   42.7910 C.3    45  LYS45       0.0035
     66  CD        -8.6510   12.5060   42.4190 C.3    45  LYS45       0.0206
     67  CE       -10.0970   12.1060   42.0520 C.3    45  LYS45       0.1093
     68  NZ       -10.9100   13.3020   41.7500 N.3    45  LYS45      -0.1314
     69  N         -6.5030    9.0910   40.9810 N.am   46  MET46      -0.1965
     70  CA        -6.4640    8.7820   39.5470 C.3    46  MET46       0.1736
     71  C         -7.6210    9.4760   38.8920 C.2    46  MET46       0.2616
     72  O         -8.7020    9.5320   39.4560 O.2    46  MET46      -0.2715
     73  CB        -6.6460    7.2870   39.3280 C.3    46  MET46       0.0427
     74  CG        -5.3610    6.5350   39.6500 C.3    46  MET46       0.0599
     75  SD        -5.6410    4.7660   39.8070 S.3    46  MET46      -0.1393
     76  CE        -6.0650    4.7020   41.5640 C.3    46  MET46       0.0692
     77  N         -7.3740   10.0070   37.7080 N.am   47  ILE47      -0.1963
     78  CA        -8.4470   10.5950   36.9000 C.3    47  ILE47       0.1727
     79  C         -8.3210   10.0230   35.5120 C.2    47  ILE47       0.2617
     80  O         -7.2520    9.5840   35.1240 O.2    47  ILE47      -0.2715
     81  CB        -8.2770   12.1130   36.8070 C.3    47  ILE47       0.0290
     82  CG1       -6.9710   12.5180   36.1460 C.3    47  ILE47       0.0022
     83  CG2       -8.4320   12.7950   38.1740 C.3    47  ILE47       0.0023
     84  CD1       -6.9020   14.0180   36.0090 C.3    47  ILE47       0.0001
     85  N         -9.3960   10.0260   34.7610 N.am   48  GLY48      -0.1940
     86  CA        -9.2330    9.5350   33.4080 C.3    48  GLY48       0.2014
     87  C         -9.3490   10.6910   32.4640 C.2    48  GLY48       0.2639
     88  O         -9.9080   11.7090   32.8200 O.2    48  GLY48      -0.2714
     89  N         -8.8640   10.5090   31.2550 N.am   49  GLY49      -0.1939
     90  CA        -9.2950   11.4050   30.1930 C.3    49  GLY49       0.2014
     91  C         -9.4020   10.6190   28.9180 C.2    49  GLY49       0.2638
     92  O         -9.4370    9.3980   28.8910 O.2    49  GLY49      -0.2714
     93  N         -9.3370   11.3400   27.8130 N.am   50  ILE50      -0.1977
     94  CA        -9.0480   10.6300   26.5700 C.3    50  ILE50       0.1596
     95  C         -7.7060   10.0230   26.7410 C.2    50  ILE50       0.2287
     96  O         -6.8540   10.6760   27.3230 O.2    50  ILE50      -0.2864
     97  CB        -8.9330   11.6530   25.4530 C.3    50  ILE50       0.0276
     98  CG1      -10.2870   12.3010   25.1560 C.3    50  ILE50       0.0022
     99  CG2       -8.3250   11.1050   24.1560 C.3    50  ILE50       0.0022
    100  CD1      -11.3690   11.3920   24.6070 C.3    50  ILE50       0.0001
    101  N         -5.9420    6.7420   32.1610 N.3    53  PHE53      -0.1241
    102  CA        -6.1180    7.2820   33.4990 C.3    53  PHE53       0.1605
    103  C         -4.7430    7.6860   33.8840 C.2    53  PHE53       0.2264
    104  O         -3.7980    7.0360   33.4700 O.2    53  PHE53      -0.2867
    105  CB        -6.5280    6.1970   34.5160 C.3    53  PHE53       0.0534
    106  CG        -8.0290    5.9520   34.5510 C.ar   53  PHE53      -0.0203
    107  CD1       -8.7110    5.4410   33.4170 C.ar   53  PHE53      -0.0042
    108  CD2       -8.7570    6.2880   35.7180 C.ar   53  PHE53      -0.0042
    109  CE1      -10.1170    5.2870   33.4320 C.ar   53  PHE53      -0.0003
    110  CE2      -10.1660    6.1400   35.7350 C.ar   53  PHE53      -0.0003
    111  CZ       -10.8420    5.6450   34.5940 C.ar   53  PHE53      -0.0000
    112  N          0.3640   15.6630   32.9920 N.3    80  THR80      -0.1204
    113  CA        -0.5350   16.2110   31.9860 C.3    80  THR80       0.1979
    114  C          0.3600   16.9450   31.0430 C.2    80  THR80       0.2460
    115  O          1.3430   17.5420   31.4550 O.2    80  THR80      -0.2732
    116  CB        -1.5690   17.1520   32.6600 C.3    80  THR80       0.1783
    117  OG1       -2.3260   17.9030   31.6960 O.3    80  THR80      -0.2211
    118  CG2       -0.8950   18.0870   33.6350 C.3    80  THR80       0.0376
    119  N          0.0070   16.8890   29.7660 N.am   81  PRO81      -0.2717
    120  CA         0.7390   17.7340   28.8120 C.3    81  PRO81       0.1535
    121  C          0.6340   19.2550   29.0790 C.2    81  PRO81       0.2598
    122  O          1.4800   20.0130   28.6470 O.2    81  PRO81      -0.2715
    123  CB         0.0790   17.3440   27.4630 C.3    81  PRO81       0.0310
    124  CG        -0.6450   16.0200   27.6980 C.3    81  PRO81       0.0237
    125  CD        -1.0580   16.0850   29.1580 C.3    81  PRO81       0.0939
    126  N         -0.4550   19.7080   29.7380 N.am   82  PHE82      -0.1974
    127  CA        -0.7140   21.1440   29.8580 C.3    82  PHE82       0.1639
    128  C         -1.3710   21.3930   31.1800 C.2    82  PHE82       0.2290
    129  O         -1.9850   20.5320   31.7770 O.2    82  PHE82      -0.2864
    130  CB        -1.7300   21.6890   28.8090 C.3    82  PHE82       0.0560
    131  CG        -1.2580   21.4280   27.4080 C.ar   82  PHE82      -0.0200
    132  CD1        0.0520   21.7960   27.0180 C.ar   82  PHE82      -0.0042
    133  CD2       -2.0980   20.7180   26.5220 C.ar   82  PHE82      -0.0042
    134  CE1        0.5400   21.4250   25.7450 C.ar   82  PHE82      -0.0003
    135  CE2       -1.6120   20.3580   25.2430 C.ar   82  PHE82      -0.0003
    136  CZ        -0.2940   20.7040   24.8580 C.ar   82  PHE82      -0.0000
    137  N         -4.2540   22.4890   33.2190 N.3    84  ILE84      -0.1245
    138  CA        -5.6830   22.6320   32.9340 C.3    84  ILE84       0.1561
    139  C         -6.3800   23.2020   34.1440 C.2    84  ILE84       0.2260
    140  O         -6.2540   22.6770   35.2400 O.2    84  ILE84      -0.2867
    141  CB        -6.2370   21.2290   32.5940 C.3    84  ILE84       0.0252
    142  CG1       -5.6610   20.7960   31.2330 C.3    84  ILE84       0.0019
    143  CG2       -7.7560   21.1870   32.5500 C.3    84  ILE84       0.0019
    144  CD1       -5.9050   19.3470   30.8520 C.3    84  ILE84       0.0001
@<TRIPOS>BOND
     1    11     9    1
     2     1     2    1
     3     8     9    2
     4     8     7    1
     5     9    10    1
     6     6     7    1
     7     6     5    1
     8     2     5    1
     9     2     3    1
    10     4     3    2
    11    99    97    1
    12   100    98    1
    13   136   135   ar
    14   136   134   ar
    15    98    97    1
    16   135   133   ar
    17    97    94    1
    18   134   132   ar
    19   133   131   ar
    20    18    17    1
    21    94    95    1
    22    94    93    1
    23    95    96    2
    24   132   131   ar
    25    19    17    1
    26   131   130    1
    27   123   124    1
    28   123   120    1
    29    17    16    1
    30   124   125    1
    31    93    91   am
    32   122   121    2
    33   130   127    1
    34   120   121    1
    35   120   119    1
    36    16    13    1
    37    92    91    2
    38    91    90    1
    39   121   126   am
    40    26    25   ar
    41   125   119    1
    42    27    25   ar
    43    25    24    1
    44    13    14    1
    45    13    12    1
    46    28    29    1
    47   126   127    1
    48   119   114   am
    49    29    30    1
    50   127   128    1
    51    21    24    1
    52    21    22    1
    53    21    20    1
    54    90    89    1
    55    14    15    2
    56    22    23    2
    57   144   142    1
    58   114   115    2
    59   114   113    1
    60    30    31    2
    61    30    32   am
    62   128   129    2
    63   142   141    1
    64    89    87   am
    65   117   116    1
    66    32    33    1
    67   113   116    1
    68   113   112    1
    69   101   102    1
    70    87    88    2
    71    87    86    1
    72   143   141    1
    73   141   138    1
    74   116   118    1
    75    36    33    1
    76    33    34    1
    77   138   137    1
    78   138   139    1
    79    86    85    1
    80   107   109   ar
    81   107   106   ar
    82   109   111   ar
    83   104   103    2
    84   102   103    1
    85   102   105    1
    86    34    35    2
    87    34    37   am
    88   139   140    2
    89   105   106    1
    90   106   108   ar
    91   111   110   ar
    92    85    79   am
    93    37    38    1
    94    80    79    2
    95    43    42   ar
    96    56    55    2
    97    79    78    1
    98   108   110   ar
    99    57    59    1
   100    57    58    1
   101    57    54    1
   102    84    82    1
   103    48    47    2
   104    42    44   ar
   105    42    41    1
   106    82    81    1
   107    38    41    1
   108    38    39    1
   109    55    54    1
   110    53    54    1
   111    81    78    1
   112    81    83    1
   113    78    77    1
   114    45    39   am
   115    45    46    1
   116    39    40    2
   117    47    46    1
   118    77    71   am
   119    46    49    1
   120    49    50    1
   121    71    72    2
   122    71    70    1
   123    73    70    1
   124    73    74    1
   125    50    52   ar
   126    50    51   ar
   127    70    69    1
   128    74    75    1
   129    75    76    1
   130    69    62   am
   131    63    62    2
   132    62    61    1
   133    68    67    1
   134    67    66    1
   135    66    65    1
   136    65    64    1
   137    61    64    1
   138    61    60    1
