@<TRIPOS>MOLECULE
tmp/1bveA00.pdb
 109 102 0 0 0
SMALL
GASTEIGER

@<TRIPOS>ATOM
      1  N         -6.0490   -0.3030    1.6340 N.3    23  LEU23      -0.1245
      2  CA        -4.6220    0.0830    1.6910 C.3    23  LEU23       0.1561
      3  C         -4.3380    1.1190    0.6000 C.2    23  LEU23       0.2260
      4  O         -4.1430    0.7730   -0.5480 O.2    23  LEU23      -0.2867
      5  CB        -3.7930   -1.1710    1.4310 C.3    23  LEU23       0.0270
      6  CG        -2.3230   -0.8000    1.2430 C.3    23  LEU23       0.0019
      7  CD1       -1.7020   -0.4510    2.5960 C.3    23  LEU23       0.0001
      8  CD2       -1.5810   -1.9910    0.6280 C.3    23  LEU23       0.0001
      9  N         -3.1300    2.3300   -2.0740 N.3    25  ASP25      -0.1239
     10  CA        -2.0240    1.8270   -2.9350 C.3    25  ASP25       0.1674
     11  C         -1.7190    2.8180   -4.0580 C.2    25  ASP25       0.2266
     12  O         -2.1280    2.6310   -5.1860 O.2    25  ASP25      -0.2867
     13  CB        -2.4380    0.4910   -3.5510 C.3    25  ASP25       0.1410
     14  CG        -1.2240   -0.4360   -3.6310 C.2    25  ASP25       0.3668
     15  OD1       -0.2930   -0.1020   -4.3440 O.co2  25  ASP25      -0.2456
     16  OD2       -1.2470   -1.4660   -2.9760 O.co2  25  ASP25      -0.2456
     17  N          0.6880    2.9480   -5.5870 N.3    27  GLY27      -0.1210
     18  CA         1.5150    2.2000   -6.5730 C.3    27  GLY27       0.1956
     19  C          0.6170    1.6380   -7.6820 C.2    27  GLY27       0.2612
     20  O          0.9630    1.6660   -8.8460 O.2    27  GLY27      -0.2717
     21  N         -0.5320    1.1230   -7.3290 N.am   28  ALA28      -0.1965
     22  CA        -1.4490    0.5560   -8.3620 C.3    28  ALA28       0.1728
     23  C         -2.1620    1.6940   -9.0990 C.2    28  ALA28       0.2616
     24  O         -2.0930    2.8420   -8.7050 O.2    28  ALA28      -0.2715
     25  CB        -2.4780   -0.3520   -7.6880 C.3    28  ALA28       0.0334
     26  N         -2.8320    1.3880  -10.1800 N.am   29  ASP29      -0.1957
     27  CA        -3.5280    2.4560  -10.9560 C.3    29  ASP29       0.1840
     28  C         -5.0310    2.4790  -10.6470 C.2    29  ASP29       0.2622
     29  O         -5.7070    3.4470  -10.9320 O.2    29  ASP29      -0.2715
     30  CB        -3.3230    2.1990  -12.4490 C.3    29  ASP29       0.1450
     31  CG        -1.8360    2.3290  -12.7870 C.2    29  ASP29       0.3671
     32  OD1       -1.0570    1.5660  -12.2410 O.co2  29  ASP29      -0.2456
     33  OD2       -1.5030    3.1900  -13.5840 O.co2  29  ASP29      -0.2456
     34  N         -5.5740    1.4320  -10.0830 N.am   30  ASP30      -0.1971
     35  CA        -7.0400    1.4390   -9.7910 C.3    30  ASP30       0.1709
     36  C         -7.3080    0.8890   -8.3870 C.2    30  ASP30       0.2293
     37  O         -6.3940    0.5970   -7.6420 O.2    30  ASP30      -0.2864
     38  CB        -7.7660    0.5900  -10.8300 C.3    30  ASP30       0.1436
     39  CG        -8.4830    1.5060  -11.8250 C.2    30  ASP30       0.3671
     40  OD1       -9.4290    2.1640  -11.4210 O.co2  30  ASP30      -0.2456
     41  OD2       -8.0710    1.5380  -12.9720 O.co2  30  ASP30      -0.2456
     42  N         -8.2600   -2.0780   -6.5700 N.3    32  VAL32      -0.1245
     43  CA        -8.5730   -3.5340   -6.5740 C.3    32  VAL32       0.1561
     44  C         -9.2420   -3.8670   -5.2400 C.2    32  VAL32       0.2260
     45  O         -9.2590   -3.0580   -4.3360 O.2    32  VAL32      -0.2867
     46  CB        -7.2850   -4.3560   -6.8080 C.3    32  VAL32       0.0252
     47  CG1       -6.8910   -5.1530   -5.5650 C.3    32  VAL32       0.0019
     48  CG2       -7.5200   -5.3390   -7.9560 C.3    32  VAL32       0.0019
     49  N         -4.7480   -8.8410  -13.5840 N.3    47  ILE47      -0.1231
     50  CA        -3.6060   -7.9770  -13.1740 C.3    47  ILE47       0.1692
     51  C         -2.4020   -8.8650  -12.8750 C.2    47  ILE47       0.2593
     52  O         -2.5180   -9.8860  -12.2350 O.2    47  ILE47      -0.2718
     53  CB        -3.9580   -7.1530  -11.9280 C.3    47  ILE47       0.0266
     54  CG1       -4.6730   -8.0320  -10.8960 C.3    47  ILE47       0.0019
     55  CG2       -4.8650   -5.9870  -12.3220 C.3    47  ILE47       0.0020
     56  CD1       -4.5540   -7.3900   -9.5050 C.3    47  ILE47       0.0001
     57  N         -1.2450   -8.4860  -13.3310 N.am   48  GLY48      -0.1942
     58  CA        -0.0390   -9.3160  -13.0650 C.3    48  GLY48       0.2014
     59  C          0.9490   -8.4900  -12.2540 C.2    48  GLY48       0.2639
     60  O          1.6230   -7.6210  -12.7730 O.2    48  GLY48      -0.2714
     61  N          1.0280   -8.7360  -10.9780 N.am   49  GLY49      -0.1939
     62  CA         1.9550   -7.9450  -10.1360 C.3    49  GLY49       0.2014
     63  C          2.9920   -8.8520   -9.4800 C.2    49  GLY49       0.2638
     64  O          3.6990   -9.5940  -10.1320 O.2    49  GLY49      -0.2714
     65  N          3.1090   -8.7500   -8.1920 N.am   50  ILE50      -0.1977
     66  CA         4.1190   -9.5410   -7.4390 C.3    50  ILE50       0.1596
     67  C          3.6730  -10.9840   -7.1770 C.2    50  ILE50       0.2287
     68  O          2.6750  -11.2300   -6.5330 O.2    50  ILE50      -0.2864
     69  CB         4.3220   -8.8370   -6.1100 C.3    50  ILE50       0.0276
     70  CG1        4.7470   -7.4030   -6.4020 C.3    50  ILE50       0.0022
     71  CG2        5.3960   -9.5550   -5.2990 C.3    50  ILE50       0.0022
     72  CD1        4.9660   -6.6520   -5.0960 C.3    50  ILE50       0.0001
     73  N        -11.9640   -3.1440   -8.6310 N.3    76  LEU76      -0.1245
     74  CA       -11.7470   -4.4880   -9.2370 C.3    76  LEU76       0.1561
     75  C        -11.9570   -5.5630   -8.1670 C.2    76  LEU76       0.2260
     76  O        -11.3190   -5.5560   -7.1410 O.2    76  LEU76      -0.2867
     77  CB       -10.3120   -4.5790   -9.7690 C.3    76  LEU76       0.0270
     78  CG       -10.0140   -3.3710  -10.6610 C.3    76  LEU76       0.0019
     79  CD1       -9.3540   -2.2710   -9.8280 C.3    76  LEU76       0.0001
     80  CD2       -9.0630   -3.7920  -11.7820 C.3    76  LEU76       0.0001
     81  N         -7.8010  -11.0110   -4.5610 N.3    80  THR80      -0.1204
     82  CA        -6.7020  -10.2020   -3.9710 C.3    80  THR80       0.1979
     83  C         -6.8330  -10.2490   -2.4460 C.2    80  THR80       0.2460
     84  O         -7.9270  -10.1850   -1.9230 O.2    80  THR80      -0.2732
     85  CB        -6.8060   -8.7490   -4.4490 C.3    80  THR80       0.1783
     86  OG1       -5.7200   -8.0010   -3.9170 O.3    80  THR80      -0.2211
     87  CG2       -8.1270   -8.1470   -3.9670 C.3    80  THR80       0.0376
     88  N         -5.7180  -10.3740   -1.7780 N.am   81  PRO81      -0.2717
     89  CA        -5.6790  -10.4510   -0.3070 C.3    81  PRO81       0.1535
     90  C         -5.8060   -9.0610    0.3420 C.2    81  PRO81       0.2598
     91  O         -5.4720   -8.8850    1.4970 O.2    81  PRO81      -0.2715
     92  CB        -4.3000  -11.0560   -0.0240 C.3    81  PRO81       0.0310
     93  CG        -3.4270  -10.7680   -1.2700 C.3    81  PRO81       0.0237
     94  CD        -4.3950  -10.4590   -2.4260 C.3    81  PRO81       0.0939
     95  N         -6.2770   -8.0700   -0.3730 N.am   82  VAL82      -0.1978
     96  CA        -6.3970   -6.7190    0.2540 C.3    82  VAL82       0.1596
     97  C         -7.3620   -5.8280   -0.5540 C.2    82  VAL82       0.2287
     98  O         -7.6950   -6.1120   -1.6880 O.2    82  VAL82      -0.2864
     99  CB        -4.9850   -6.0820    0.3160 C.3    82  VAL82       0.0276
    100  CG1       -4.9530   -4.7130   -0.3810 C.3    82  VAL82       0.0022
    101  CG2       -4.5700   -5.9040    1.7780 C.3    82  VAL82       0.0022
    102  N         -7.2760   -2.8490   -2.4890 N.3    84  ILE84      -0.1245
    103  CA        -6.3030   -1.8630   -3.0430 C.3    84  ILE84       0.1561
    104  C         -6.9840   -0.5680   -3.4870 C.2    84  ILE84       0.2260
    105  O         -7.8970   -0.5770   -4.2800 O.2    84  ILE84      -0.2867
    106  CB        -5.5900   -2.4830   -4.2480 C.3    84  ILE84       0.0252
    107  CG1       -4.9920   -3.8330   -3.8490 C.3    84  ILE84       0.0019
    108  CG2       -4.4720   -1.5510   -4.7190 C.3    84  ILE84       0.0019
    109  CD1       -3.8590   -3.6200   -2.8450 C.3    84  ILE84       0.0001
@<TRIPOS>BOND
     1    49    50    1
     2    33    31   ar
     3    57    58    1
     4    57    51   am
     5    50    51    1
     6    50    53    1
     7    58    59    1
     8    41    39   ar
     9    51    52    2
    10    31    30    1
    11    31    32   ar
    12    60    59    2
    13    30    27    1
    14    55    53    1
    15    59    61   am
    16    53    54    1
    17    39    40   ar
    18    39    38    1
    19    80    78    1
    20    61    62    1
    21    27    28    1
    22    27    26    1
    23    29    28    2
    24    54    56    1
    25    38    35    1
    26    78    79    1
    27    78    77    1
    28    28    34   am
    29    26    23   am
    30    62    63    1
    31    64    63    2
    32    34    35    1
    33    35    36    1
    34    77    74    1
    35    63    65   am
    36    74    73    1
    37    74    75    1
    38    23    24    2
    39    23    22    1
    40    20    19    2
    41    36    37    2
    42    22    25    1
    43    22    21    1
    44    65    66    1
    45    75    76    2
    46    48    46    1
    47    19    21   am
    48    19    18    1
    49    66    67    1
    50    66    69    1
    51    67    68    2
    52    46    43    1
    53    46    47    1
    54    43    42    1
    55    43    44    1
    56    18    17    1
    57    70    69    1
    58    70    72    1
    59    69    71    1
    60    44    45    2
    61    12    11    2
    62   108   106    1
    63    81    82    1
    64    85    82    1
    65    85    87    1
    66    85    86    1
    67    15    14   ar
    68   105   104    2
    69   106   107    1
    70   106   103    1
    71    11    10    1
    72    82    83    1
    73   107   109    1
    74    14    13    1
    75    14    16   ar
    76    13    10    1
    77   104   103    1
    78   103   102    1
    79    10     9    1
    80    83    84    2
    81    83    88   am
    82    94    88    1
    83    94    93    1
    84    88    89    1
    85    98    97    2
    86    93    92    1
    87    97    96    1
    88     4     3    2
    89   100    99    1
    90    95    96    1
    91    95    90   am
    92    89    92    1
    93    89    90    1
    94    96    99    1
    95    99   101    1
    96    90    91    2
    97     3     2    1
    98     8     6    1
    99     6     5    1
   100     6     7    1
   101     5     2    1
   102     1     2    1
