@<TRIPOS>MOLECULE
tmp/1bviB00.pdb
 145 144 0 0 0
SMALL
GASTEIGER

@<TRIPOS>ATOM
      1  N         -6.7050   -1.3640   85.7620 N.3    36  ASN36      -0.1240
      2  CA        -6.3960   -1.3640   84.3330 C.3    36  ASN36       0.1653
      3  C         -5.5250   -2.5210   83.8530 C.2    36  ASN36       0.2266
      4  O         -4.9580   -2.4570   82.7640 O.2    36  ASN36      -0.2867
      5  CB        -5.7620   -0.0370   83.9150 C.3    36  ASN36       0.1155
      6  CG        -6.7880    0.9970   83.5240 C.2    36  ASN36       0.2627
      7  OD1       -7.2430    1.7740   84.4970 O.2    36  ASN36      -0.2716
      8  ND2       -7.1730    1.0950   82.3550 N.am   36  ASN36      -0.0877
      9  N         -2.3700   -3.9820   84.8360 N.3    38  TYR38      -0.1241
     10  CA        -0.9680   -3.6890   84.5530 C.3    38  TYR38       0.1605
     11  C         -0.0790   -4.8900   84.8890 C.2    38  TYR38       0.2264
     12  O         -0.3440   -5.6130   85.8440 O.2    38  TYR38      -0.2867
     13  CB        -0.5030   -2.4740   85.3590 C.3    38  TYR38       0.0534
     14  CG        -1.1960   -1.1840   85.0040 C.ar   38  TYR38      -0.0201
     15  CD1       -0.9420   -0.5390   83.7900 C.ar   38  TYR38      -0.0009
     16  CD2       -2.0820   -0.5840   85.8980 C.ar   38  TYR38      -0.0009
     17  CE1       -1.5550    0.6790   83.4790 C.ar   38  TYR38       0.0417
     18  CE2       -2.6950    0.6290   85.6010 C.ar   38  TYR38       0.0417
     19  CZ        -2.4280    1.2550   84.3930 C.ar   38  TYR38       0.1957
     20  OH        -3.0310    2.4630   84.1120 O.3    38  TYR38      -0.2866
     21  N          0.2260   -3.8360   80.8180 N.3    40  HIS40      -0.1226
     22  CA        -0.5300   -4.1650   79.6200 C.3    40  HIS40       0.1752
     23  C          0.1050   -3.4560   78.4340 C.2    40  HIS40       0.2596
     24  O          0.9100   -2.5360   78.6080 O.2    40  HIS40      -0.2718
     25  CB        -2.0170   -3.7980   79.7680 C.3    40  HIS40       0.0759
     26  CG        -2.2830   -2.3260   79.8040 C.ar   40  HIS40       0.0818
     27  ND1       -2.1420   -1.5190   78.6930 N.ar   40  HIS40      -0.2268
     28  CD2       -2.6690   -1.5110   80.8140 C.ar   40  HIS40       0.1154
     29  CE1       -2.4280   -0.2710   79.0220 C.ar   40  HIS40       0.1986
     30  NE2       -2.7500   -0.2390   80.3020 N.ar   40  HIS40      -0.2212
     31  N         -0.2620   -3.8930   77.2350 N.am   41  LYS41      -0.1966
     32  CA         0.2700   -3.3390   75.9970 C.3    41  LYS41       0.1728
     33  C          0.1370   -1.8390   75.8220 C.2    41  LYS41       0.2616
     34  O         -0.9140   -1.2610   76.0880 O.2    41  LYS41      -0.2715
     35  CB        -0.3640   -4.0400   74.7940 C.3    41  LYS41       0.0311
     36  CG         0.2820   -5.3650   74.4560 C.3    41  LYS41       0.0038
     37  CD        -0.4660   -6.0990   73.3500 C.3    41  LYS41       0.0206
     38  CE         0.4180   -7.1610   72.7000 C.3    41  LYS41       0.1093
     39  NZ         1.0520   -8.0830   73.6890 N.3    41  LYS41      -0.1314
     40  N          1.2430   -1.2090   75.4320 N.am   42  TYR42      -0.1960
     41  CA         1.2580    0.2160   75.1520 C.3    42  TYR42       0.1771
     42  C          1.3000    0.2570   73.6250 C.2    42  TYR42       0.2620
     43  O          2.2790   -0.1720   73.0100 O.2    42  TYR42      -0.2715
     44  CB         2.4960    0.8910   75.7390 C.3    42  TYR42       0.0574
     45  CG         2.5790    2.3580   75.3840 C.ar   42  TYR42      -0.0198
     46  CD1        1.7050    3.2820   75.9580 C.ar   42  TYR42      -0.0009
     47  CD2        3.4930    2.8150   74.4320 C.ar   42  TYR42      -0.0009
     48  CE1        1.7340    4.6250   75.5870 C.ar   42  TYR42       0.0417
     49  CE2        3.5300    4.1500   74.0550 C.ar   42  TYR42       0.0417
     50  CZ         2.6470    5.0520   74.6330 C.ar   42  TYR42       0.1957
     51  OH         2.6680    6.3740   74.2400 O.3    42  TYR42      -0.2866
     52  N          0.2160    0.7310   73.0220 N.am   43  ASN43      -0.1958
     53  CA         0.1030    0.7790   71.5680 C.3    43  ASN43       0.1819
     54  C          0.9000    1.8610   70.8470 C.2    43  ASN43       0.2621
     55  O          1.1300    1.7580   69.6430 O.2    43  ASN43      -0.2715
     56  CB        -1.3700    0.8620   71.1690 C.3    43  ASN43       0.1195
     57  CG        -2.1400   -0.3910   71.5360 C.2    43  ASN43       0.2630
     58  OD1       -1.6720   -1.5140   71.3130 O.2    43  ASN43      -0.2716
     59  ND2       -3.3230   -0.2080   72.1100 N.am   43  ASN43      -0.0877
     60  N          1.3350    2.8740   71.5880 N.am   44  ASN44      -0.1958
     61  CA         2.0910    3.9980   71.0470 C.3    44  ASN44       0.1819
     62  C          1.2850    4.8520   70.0590 C.2    44  ASN44       0.2621
     63  O          1.7740    5.2170   68.9850 O.2    44  ASN44      -0.2715
     64  CB         3.4140    3.5370   70.4200 C.3    44  ASN44       0.1195
     65  CG         4.4040    4.6790   70.2410 C.2    44  ASN44       0.2630
     66  OD1        4.2340    5.7580   70.8070 O.2    44  ASN44      -0.2716
     67  ND2        5.4500    4.4420   69.4560 N.am   44  ASN44      -0.0877
     68  N          0.0540    5.1860   70.4430 N.am   45  TYR45      -0.1960
     69  CA        -0.8110    6.0270   69.6130 C.3    45  TYR45       0.1771
     70  C         -0.1220    7.3760   69.4380 C.2    45  TYR45       0.2619
     71  O         -0.2350    8.0060   68.3850 O.2    45  TYR45      -0.2715
     72  CB        -2.1730    6.2440   70.2810 C.3    45  TYR45       0.0574
     73  CG        -2.9910    4.9850   70.4950 C.ar   45  TYR45      -0.0198
     74  CD1       -3.1340    4.0340   69.4800 C.ar   45  TYR45      -0.0009
     75  CD2       -3.6320    4.7500   71.7120 C.ar   45  TYR45      -0.0009
     76  CE1       -3.8990    2.8770   69.6760 C.ar   45  TYR45       0.0417
     77  CE2       -4.3950    3.6010   71.9170 C.ar   45  TYR45       0.0417
     78  CZ        -4.5230    2.6710   70.8990 C.ar   45  TYR45       0.1957
     79  OH        -5.2670    1.5320   71.1140 O.3    45  TYR45      -0.2866
     80  N          0.6130    7.7920   70.4720 N.am   46  GLU46      -0.1977
     81  CA         1.3480    9.0570   70.4770 C.3    46  GLU46       0.1602
     82  C          2.4420    9.0890   69.4130 C.2    46  GLU46       0.2287
     83  O          2.9370   10.1620   69.0630 O.2    46  GLU46      -0.2864
     84  CB         1.9960    9.3060   71.8470 C.3    46  GLU46       0.0415
     85  CG         1.0570    9.7890   72.9560 C.3    46  GLU46       0.1163
     86  CD         0.1350    8.7090   73.5050 C.2    46  GLU46       0.3649
     87  OE1        0.4200    7.5070   73.3390 O.co2  46  GLU46      -0.2457
     88  OE2       -0.8810    9.0720   74.1290 O.co2  46  GLU46      -0.2457
     89  N          3.2880   -0.9340   79.2670 N.3    58  GLU58      -0.1245
     90  CA         3.3350    0.1660   80.2130 C.3    58  GLU58       0.1567
     91  C          3.0790   -0.3610   81.6250 C.2    58  GLU58       0.2260
     92  O          2.3170   -1.3140   81.8310 O.2    58  GLU58      -0.2867
     93  CB         2.3420    1.2690   79.8370 C.3    58  GLU58       0.0388
     94  CG         0.8750    0.8800   79.9080 C.3    58  GLU58       0.1160
     95  CD        -0.0400    2.0890   79.8520 C.2    58  GLU58       0.3649
     96  OE1       -0.1300    2.8230   80.8550 O.co2  58  GLU58      -0.2457
     97  OE2       -0.6760    2.3080   78.8030 O.co2  58  GLU58      -0.2457
     98  N          4.2580    6.3880   84.0010 N.3    77  ARG77      -0.1245
     99  CA         4.4650    5.0190   83.5130 C.3    77  ARG77       0.1563
    100  C          5.8600    4.8130   82.9220 C.2    77  ARG77       0.2260
    101  O          6.4600    5.7360   82.3690 O.2    77  ARG77      -0.2867
    102  CB         3.4790    4.6750   82.3800 C.3    77  ARG77       0.0307
    103  CG         2.0090    4.9080   82.6400 C.3    77  ARG77       0.0489
    104  CD         1.3900    3.8480   83.5190 C.3    77  ARG77       0.2205
    105  NE        -0.0330    4.1210   83.7180 N.pl3  77  ARG77      -0.0865
    106  CZ        -0.5230    4.9170   84.6650 C.cat  77  ARG77       0.5346
    107  NH1        0.2870    5.5230   85.5220 N.pl3  77  ARG77       0.1354
    108  NH2       -1.8240    5.1450   84.7260 N.pl3  77  ARG77       0.1354
    109  N          0.8350   11.2990   82.0420 N.3    92  HIS92      -0.1241
    110  CA        -0.4290   11.9190   81.6380 C.3    92  HIS92       0.1621
    111  C         -0.3840   13.4050   81.9860 C.2    92  HIS92       0.2264
    112  O         -1.0490   14.2200   81.3530 O.2    92  HIS92      -0.2867
    113  CB        -1.6100   11.2940   82.3860 C.3    92  HIS92       0.0745
    114  CG        -2.0360    9.9630   81.8550 C.ar   92  HIS92       0.0817
    115  ND1       -2.5520    9.7980   80.5870 N.ar   92  HIS92      -0.2268
    116  CD2       -2.0820    8.7440   82.4420 C.ar   92  HIS92       0.1154
    117  CE1       -2.9040    8.5360   80.4190 C.ar   92  HIS92       0.1986
    118  NE2       -2.6290    7.8750   81.5300 N.ar   92  HIS92      -0.2212
    119  N         -6.6940   11.5000   77.5260 N.3    98  ASN98      -0.1225
    120  CA        -6.0170   10.2970   77.9980 C.3    98  ASN98       0.1785
    121  C         -4.6640   10.0980   77.3200 C.2    98  ASN98       0.2597
    122  O         -4.1460    8.9840   77.2610 O.2    98  ASN98      -0.2718
    123  CB        -6.8960    9.0680   77.7740 C.3    98  ASN98       0.1169
    124  CG        -7.7940    8.7720   78.9580 C.2    98  ASN98       0.2627
    125  OD1       -7.8300    7.5070   79.3690 O.2    98  ASN98      -0.2716
    126  ND2       -8.4320    9.6700   79.5120 N.am   98  ASN98      -0.0877
    127  N         -4.0930   11.1870   76.8190 N.am   99  ASN99      -0.1960
    128  CA        -2.8030   11.1370   76.1460 C.3    99  ASN99       0.1819
    129  C         -1.6450   11.1370   77.1190 C.2    99  ASN99       0.2621
    130  O         -1.8180   11.3480   78.3200 O.2    99  ASN99      -0.2715
    131  CB        -2.6320   12.3260   75.1980 C.3    99  ASN99       0.1195
    132  CG        -3.5670   12.2680   74.0120 C.2    99  ASN99       0.2630
    133  OD1       -3.9790   11.1910   73.5760 O.2    99  ASN99      -0.2716
    134  ND2       -3.9010   13.4340   73.4720 N.am   99  ASN99      -0.0877
    135  N         -0.4580   10.9320   76.5570 N.am  100  PHE100     -0.1974
    136  CA         0.7960   10.9130   77.2910 C.3   100  PHE100      0.1639
    137  C          1.7840   11.8600   76.6160 C.2   100  PHE100      0.2290
    138  O          1.6920   12.1340   75.4110 O.2   100  PHE100     -0.2864
    139  CB         1.4430    9.5210   77.2340 C.3   100  PHE100      0.0560
    140  CG         0.7940    8.4820   78.1080 C.ar  100  PHE100     -0.0200
    141  CD1        1.0260    8.4640   79.4810 C.ar  100  PHE100     -0.0042
    142  CD2        0.0210    7.4710   77.5460 C.ar  100  PHE100     -0.0042
    143  CE1        0.5060    7.4520   80.2810 C.ar  100  PHE100     -0.0003
    144  CE2       -0.5050    6.4540   78.3350 C.ar  100  PHE100     -0.0003
    145  CZ        -0.2610    6.4440   79.7050 C.ar  100  PHE100     -0.0000
@<TRIPOS>BOND
     1    71    70    2
     2    63    62    2
     3    83    82    2
     4    82    81    1
     5    70    69    1
     6    70    80   am
     7    67    65   am
     8    74    76   ar
     9    74    73   ar
    10    69    72    1
    11    69    68    1
    12    55    54    2
    13    76    78   ar
    14    62    68   am
    15    62    61    1
    16    65    64    1
    17    65    66    2
    18    72    73    1
    19    64    61    1
    20    80    81    1
    21    81    84    1
    22    73    75   ar
    23    54    53    1
    24    54    60   am
    25    78    79    1
    26    78    77   ar
    27    61    60    1
    28    56    57    1
    29    56    53    1
    30    58    57    2
    31    57    59   am
    32    53    52    1
    33    75    77   ar
    34    84    85    1
    35    38    37    1
    36    38    39    1
    37    85    86    1
    38    43    42    2
    39    52    42   am
    40    87    86   ar
    41    37    36    1
    42   134   132   am
    43    86    88   ar
    44   133   132    2
    45    42    41    1
    46   132   131    1
    47    49    47   ar
    48    49    50   ar
    49    51    50    1
    50    47    45   ar
    51    36    35    1
    52    50    48   ar
    53    35    32    1
    54    41    40    1
    55    41    44    1
    56   131   128    1
    57    45    44    1
    58    45    46   ar
    59   138   137    2
    60    40    33   am
    61    48    46   ar
    62    33    32    1
    63    33    34    2
    64    32    31    1
    65   128   127    1
    66   128   129    1
    67   135   129   am
    68   135   136    1
    69   137   136    1
    70   127   121   am
    71   129   130    2
    72   139   136    1
    73   139   140    1
    74    31    23   am
    75   122   121    2
    76   121   120    1
    77   119   120    1
    78   142   140   ar
    79   142   144   ar
    80   123   120    1
    81   123   124    1
    82   140   141   ar
    83   144   145   ar
    84    23    24    2
    85    23    22    1
    86    27    29   ar
    87    27    26   ar
    88    97    95   ar
    89   124   125    2
    90   124   126   am
    91    29    30   ar
    92    89    90    1
    93   141   143   ar
    94    22    25    1
    95    22    21    1
    96   145   143   ar
    97    25    26    1
    98    26    28   ar
    99    93    94    1
   100    93    90    1
   101    95    94    1
   102    95    96   ar
   103    90    91    1
   104    30    28   ar
   105   117   115   ar
   106   117   118   ar
   107   115   114   ar
   108   112   111    2
   109   118   116   ar
   110    91    92    2
   111   110   111    1
   112   110   109    1
   113   110   113    1
   114   114   113    1
   115   114   116   ar
   116     8     6   am
   117   101   100    2
   118   102   103    1
   119   102    99    1
   120   103   104    1
   121     4     3    2
   122   100    99    1
   123    17    15   ar
   124    17    19   ar
   125    99    98    1
   126   104   105    1
   127     6     5    1
   128     6     7    2
   129   105   106    2
   130    15    14   ar
   131     3     2    1
   132     5     2    1
   133    20    19    1
   134     2     1    1
   135    19    18   ar
   136    10     9    1
   137    10    11    1
   138    10    13    1
   139   106   108    1
   140   106   107    1
   141    11    12    2
   142    14    13    1
   143    14    16   ar
   144    18    16   ar
