@<TRIPOS>MOLECULE
tmp/1bviC01.pdb
 101 97 0 0 0
SMALL
GASTEIGER

@<TRIPOS>ATOM
      1  N         13.8810   28.2460   82.5470 N.3    36  ASN36      -0.1240
      2  CA        14.1110   29.2370   81.4970 C.3    36  ASN36       0.1653
      3  C         13.7660   28.7320   80.0980 C.2    36  ASN36       0.2266
      4  O         14.1260   29.3570   79.1000 O.2    36  ASN36      -0.2867
      5  CB        15.5530   29.7320   81.5380 C.3    36  ASN36       0.1155
      6  CG        15.8620   30.4960   82.8000 C.2    36  ASN36       0.2627
      7  OD1       15.4470   31.6420   82.9560 O.2    36  ASN36      -0.2716
      8  ND2       16.5780   29.8620   83.7170 N.am   36  ASN36      -0.0877
      9  N         14.7110   26.0400   77.8890 N.3    38  TYR38      -0.1241
     10  CA        15.7440   25.8280   76.8800 C.3    38  TYR38       0.1605
     11  C         15.3160   24.7080   75.9320 C.2    38  TYR38       0.2264
     12  O         14.6750   23.7470   76.3510 O.2    38  TYR38      -0.2867
     13  CB        17.0720   25.4600   77.5480 C.3    38  TYR38       0.0534
     14  CG        17.6540   26.5720   78.3890 C.ar   38  TYR38      -0.0201
     15  CD1       18.2690   27.6770   77.7920 C.ar   38  TYR38      -0.0009
     16  CD2       17.5860   26.5240   79.7830 C.ar   38  TYR38      -0.0009
     17  CE1       18.8040   28.7100   78.5630 C.ar   38  TYR38       0.0417
     18  CE2       18.1100   27.5460   80.5630 C.ar   38  TYR38       0.0417
     19  CZ        18.7170   28.6370   79.9500 C.ar   38  TYR38       0.1957
     20  OH        19.2170   29.6580   80.7270 O.3    38  TYR38      -0.2866
     21  N         15.8590   28.3710   74.0070 N.3    40  HIS40      -0.1241
     22  CA        15.0220   29.5390   73.7640 C.3    40  HIS40       0.1621
     23  C         15.6870   30.5190   72.8040 C.2    40  HIS40       0.2264
     24  O         16.8990   30.4710   72.5990 O.2    40  HIS40      -0.2867
     25  CB        14.6100   30.2260   75.0830 C.3    40  HIS40       0.0745
     26  CG        15.7260   30.9280   75.7980 C.ar   40  HIS40       0.0817
     27  ND1       16.2180   32.1510   75.3910 N.ar   40  HIS40      -0.2268
     28  CD2       16.3940   30.6160   76.9340 C.ar   40  HIS40       0.1154
     29  CE1       17.1340   32.5640   76.2480 C.ar   40  HIS40       0.1986
     30  NE2       17.2610   31.6500   77.1940 N.ar   40  HIS40      -0.2212
     31  N         19.6680   29.5390   72.1880 N.3    58  GLU58      -0.1245
     32  CA        20.7290   29.1910   73.1260 C.3    58  GLU58       0.1567
     33  C         20.3560   27.9330   73.9150 C.2    58  GLU58       0.2260
     34  O         19.2060   27.7480   74.3050 O.2    58  GLU58      -0.2867
     35  CB        21.0790   30.3630   74.0530 C.3    58  GLU58       0.0388
     36  CG        19.9250   30.9420   74.8430 C.3    58  GLU58       0.1160
     37  CD        20.3950   31.7530   76.0340 C.2    58  GLU58       0.3649
     38  OE1       21.0290   31.1730   76.9360 O.co2  58  GLU58      -0.2457
     39  OE2       20.1330   32.9680   76.0780 O.co2  58  GLU58      -0.2457
     40  N         20.2200   23.4240   86.9310 N.3    72  SER72      -0.1203
     41  CA        20.8040   24.7530   86.8100 C.3    72  SER72       0.2005
     42  C         21.6050   24.6730   85.5070 C.2    72  SER72       0.2461
     43  O         22.3580   23.7260   85.2990 O.2    72  SER72      -0.2732
     44  CB        21.7310   25.0290   87.9940 C.3    72  SER72       0.2103
     45  OG        22.2590   26.3420   87.9330 O.3    72  SER72      -0.2182
     46  N         21.4140   25.6360   84.5930 N.am   73  PRO73      -0.2717
     47  CA        22.1310   25.6340   83.3120 C.3    73  PRO73       0.1536
     48  C         23.5910   26.0790   83.3360 C.2    73  PRO73       0.2599
     49  O         24.3380   25.8110   82.3950 O.2    73  PRO73      -0.2715
     50  CB        21.2870   26.5730   82.4640 C.3    73  PRO73       0.0310
     51  CG        20.8460   27.5910   83.4590 C.3    73  PRO73       0.0237
     52  CD        20.4330   26.7350   84.6430 C.3    73  PRO73       0.0939
     53  N         23.9990   26.7680   84.3960 N.am   74  GLY74      -0.1941
     54  CA        25.3700   27.2320   84.4630 C.3    74  GLY74       0.2014
     55  C         25.5250   28.4780   83.6130 C.2    74  GLY74       0.2638
     56  O         24.5380   29.0770   83.1830 O.2    74  GLY74      -0.2714
     57  N         26.7650   28.8280   83.3110 N.am   75  ALA75      -0.1977
     58  CA        27.0690   30.0280   82.5410 C.3    75  ALA75       0.1597
     59  C         27.2910   29.8430   81.0430 C.2    75  ALA75       0.2287
     60  O         27.1890   30.8040   80.2820 O.2    75  ALA75      -0.2864
     61  CB        28.2960   30.7210   83.1550 C.3    75  ALA75       0.0319
     62  N         26.8060   28.4410   77.0890 N.3    77  ARG77      -0.1245
     63  CA        25.7640   28.1840   76.0960 C.3    77  ARG77       0.1563
     64  C         26.2800   27.9230   74.6880 C.2    77  ARG77       0.2260
     65  O         27.2850   28.4920   74.2680 O.2    77  ARG77      -0.2867
     66  CB        24.8450   29.4090   75.9740 C.3    77  ARG77       0.0307
     67  CG        24.2220   29.9140   77.2520 C.3    77  ARG77       0.0489
     68  CD        23.1190   29.0090   77.7680 C.3    77  ARG77       0.2205
     69  NE        22.5790   29.5630   79.0050 N.pl3  77  ARG77      -0.0865
     70  CZ        23.0530   29.3000   80.2210 C.cat  77  ARG77       0.5346
     71  NH1       24.0730   28.4670   80.3830 N.pl3  77  ARG77       0.1354
     72  NH2       22.5630   29.9450   81.2690 N.pl3  77  ARG77       0.1354
     73  N         28.2830   33.4560   80.1270 N.3    92  HIS92      -0.1241
     74  CA        27.9500   34.5720   81.0150 C.3    92  HIS92       0.1621
     75  C         29.2010   34.9590   81.8210 C.2    92  HIS92       0.2264
     76  O         29.3070   36.0800   82.3170 O.2    92  HIS92      -0.2867
     77  CB        26.8560   34.1630   82.0060 C.3    92  HIS92       0.0745
     78  CG        25.4840   34.0730   81.4150 C.ar   92  HIS92       0.0817
     79  ND1       24.8040   35.1750   80.9420 N.ar   92  HIS92      -0.2268
     80  CD2       24.6290   33.0290   81.3020 C.ar   92  HIS92       0.1154
     81  CE1       23.5870   34.8140   80.5720 C.ar   92  HIS92       0.1986
     82  NE2       23.4550   33.5170   80.7810 N.ar   92  HIS92      -0.2212
     83  N         25.7200   39.9530   83.6750 N.3    98  ASN98      -0.1240
     84  CA        25.3200   38.5990   83.3090 C.3    98  ASN98       0.1653
     85  C         24.8980   38.5250   81.8350 C.2    98  ASN98       0.2266
     86  O         23.9720   37.7990   81.4720 O.2    98  ASN98      -0.2867
     87  CB        24.2130   38.0620   84.2410 C.3    98  ASN98       0.1155
     88  CG        24.0520   36.5380   84.1600 C.2    98  ASN98       0.2627
     89  OD1       22.9380   36.0210   84.0270 O.2    98  ASN98      -0.2716
     90  ND2       25.1620   35.8200   84.2530 N.am   98  ASN98      -0.0877
     91  N         26.5790   38.2770   77.7530 N.3   100  PHE100     -0.1241
     92  CA        27.4360   37.2400   77.1840 C.3   100  PHE100      0.1605
     93  C         28.7040   37.7670   76.5380 C.2   100  PHE100      0.2264
     94  O         28.7590   38.8950   76.0630 O.2   100  PHE100     -0.2867
     95  CB        26.6940   36.4360   76.1120 C.3   100  PHE100      0.0534
     96  CG        25.5760   35.5800   76.6290 C.ar  100  PHE100     -0.0203
     97  CD1       25.8360   34.3100   77.1440 C.ar  100  PHE100     -0.0042
     98  CD2       24.2570   36.0060   76.5270 C.ar  100  PHE100     -0.0042
     99  CE1       24.8000   33.4740   77.5440 C.ar  100  PHE100     -0.0003
    100  CE2       23.2050   35.1750   76.9260 C.ar  100  PHE100     -0.0003
    101  CZ        23.4820   33.9060   77.4330 C.ar  100  PHE100     -0.0000
@<TRIPOS>BOND
     1    31    32    1
     2    24    23    2
     3    23    22    1
     4    32    33    1
     5    32    35    1
     6    22    21    1
     7    22    25    1
     8    33    34    2
     9    35    36    1
    10    65    64    2
    11    64    63    1
    12    36    37    1
    13    25    26    1
    14    27    26   ar
    15    27    29   ar
    16    26    28   ar
    17    11    12    2
    18    11    10    1
    19    66    63    1
    20    66    67    1
    21    37    39   ar
    22    37    38   ar
    23    94    93    2
    24    63    62    1
    25    95    96    1
    26    95    92    1
    27    29    30   ar
    28    98    96   ar
    29    98   100   ar
    30    93    92    1
    31    96    97   ar
    32    10    13    1
    33    10     9    1
    34   100   101   ar
    35    28    30   ar
    36    97    99   ar
    37    92    91    1
    38    67    68    1
    39   101    99   ar
    40    13    14    1
    41    68    69    1
    42    15    14   ar
    43    15    17   ar
    44    14    16   ar
    45    17    19   ar
    46    69    70    2
    47     4     3    2
    48    16    18   ar
    49    19    18   ar
    50    19    20    1
    51     3     2    1
    52    73    74    1
    53    70    71    1
    54    70    72    1
    55    60    59    2
    56    81    82   ar
    57    81    79   ar
    58    82    80   ar
    59    79    78   ar
    60    74    75    1
    61    74    77    1
    62    59    58    1
    63    80    78   ar
    64    78    77    1
    65    86    85    2
    66     2     5    1
    67     2     1    1
    68     5     6    1
    69    75    76    2
    70    85    84    1
    71    49    48    2
    72    50    47    1
    73    50    51    1
    74    58    61    1
    75    58    57    1
    76     6     7    2
    77     6     8   am
    78    56    55    2
    79    84    83    1
    80    84    87    1
    81    57    55   am
    82    47    48    1
    83    47    46    1
    84    48    53   am
    85    51    52    1
    86    55    54    1
    87    89    88    2
    88    88    87    1
    89    88    90   am
    90    53    54    1
    91    46    52    1
    92    46    42   am
    93    43    42    2
    94    42    41    1
    95    41    40    1
    96    41    44    1
    97    45    44    1
