@<TRIPOS>MOLECULE
tmp/1bvrC01.pdb
 156 147 0 0 0
SMALL
GASTEIGER

@<TRIPOS>ATOM
      1  N         58.2120    8.9180   43.3510 N.3    15  ILE15      -0.1245
      2  CA        59.1910    9.9940   43.4470 C.3    15  ILE15       0.1561
      3  C         60.5930    9.3800   43.5200 C.2    15  ILE15       0.2260
      4  O         61.5900   10.0180   43.1510 O.2    15  ILE15      -0.2867
      5  CB        58.9530   10.9140   44.6750 C.3    15  ILE15       0.0252
      6  CG1       59.8890   12.1310   44.6210 C.3    15  ILE15       0.0019
      7  CG2       59.1450   10.1430   45.9520 C.3    15  ILE15       0.0019
      8  CD1       59.6630   13.0550   43.3970 C.3    15  ILE15       0.0001
      9  N         50.2260   11.5970   48.8150 N.3    95  GLY95      -0.1225
     10  CA        49.9880   11.9940   50.1950 C.3    95  GLY95       0.1811
     11  C         50.9590   13.0890   50.6170 C.2    95  GLY95       0.2280
     12  O         52.1750   12.8960   50.5050 O.2    95  GLY95      -0.2866
     13  N         55.4660   19.7510   57.4330 N.3    99  GLN99      -0.1245
     14  CA        55.9260   19.4220   58.7820 C.3    99  GLN99       0.1566
     15  C         55.1770   20.1240   59.9090 C.2    99  GLN99       0.2260
     16  O         55.2570   19.7220   61.0870 O.2    99  GLN99      -0.2867
     17  CB        57.4310   19.7180   58.9000 C.3    99  GLN99       0.0367
     18  CG        58.3150   18.8650   58.0070 C.3    99  GLN99       0.0905
     19  CD        58.8740   17.6530   58.7170 C.2    99  GLN99       0.2608
     20  OE1       58.2000   17.0020   59.5200 O.2    99  GLN99      -0.2717
     21  NE2       60.1310   17.3460   58.4310 N.am   99  GLN99      -0.0878
     22  N         52.4970   17.6640   60.9340 N.3   102  MET102     -0.1230
     23  CA        52.8750   16.2710   61.0400 C.3   102  MET102      0.1702
     24  C         54.1850   16.1960   61.7150 C.2   102  MET102      0.2592
     25  O         55.0550   16.9500   61.3820 O.2   102  MET102     -0.2718
     26  CB        52.9970   15.6760   59.6420 C.3   102  MET102      0.0401
     27  CG        53.4190   14.2320   59.5680 C.3   102  MET102      0.0596
     28  SD        52.9810   13.6550   57.9170 S.3   102  MET102     -0.1393
     29  CE        54.3760   12.5940   57.4660 C.3   102  MET102      0.0692
     30  N         54.2860   15.3360   62.7140 N.am  103  GLY103     -0.1957
     31  CA        55.5310   15.1610   63.4090 C.3   103  GLY103      0.1869
     32  C         55.6780   15.7910   64.7690 C.2   103  GLY103      0.2309
     33  O         54.8000   15.6420   65.6290 O.2   103  GLY103     -0.2863
     34  N         46.0450    4.9500   55.8960 N.3   148  PHE148     -0.1241
     35  CA        46.8350    4.6290   57.0940 C.3   148  PHE148      0.1605
     36  C         45.9260    4.7370   58.3310 C.2   148  PHE148      0.2264
     37  O         45.9100    5.7610   59.0160 O.2   148  PHE148     -0.2867
     38  CB        48.0420    5.5800   57.2120 C.3   148  PHE148      0.0534
     39  CG        49.0120    5.2170   58.3040 C.ar  148  PHE148     -0.0203
     40  CD1       48.8480    5.7160   59.5880 C.ar  148  PHE148     -0.0042
     41  CD2       50.0860    4.3670   58.0500 C.ar  148  PHE148     -0.0042
     42  CE1       49.7300    5.3770   60.6170 C.ar  148  PHE148     -0.0003
     43  CE2       50.9750    4.0170   59.0700 C.ar  148  PHE148     -0.0003
     44  CZ        50.7890    4.5300   60.3590 C.ar  148  PHE148     -0.0000
     45  N         46.8760    8.7890   67.0040 N.3   154  MET154     -0.1231
     46  CA        48.2190    8.4200   67.3780 C.3   154  MET154      0.1687
     47  C         49.0690    9.6790   67.3370 C.2   154  MET154      0.2434
     48  O         48.7410   10.6380   66.6440 O.2   154  MET154     -0.2733
     49  CB        48.7620    7.3180   66.4620 C.3   154  MET154      0.0400
     50  CG        48.8450    7.6850   64.9940 C.3   154  MET154      0.0596
     51  SD        48.7030    6.2020   63.8930 S.3   154  MET154     -0.1393
     52  CE        47.1810    6.6190   63.1220 C.3   154  MET154      0.0692
     53  N         50.1550    9.7140   68.1280 N.am  155  PRO155     -0.2718
     54  CA        51.0620   10.8570   68.2000 C.3   155  PRO155      0.1535
     55  C         51.8380   11.0490   66.9050 C.2   155  PRO155      0.2598
     56  O         52.1730   10.0740   66.2170 O.2   155  PRO155     -0.2715
     57  CB        51.9880   10.4650   69.3430 C.3   155  PRO155      0.0310
     58  CG        52.1100    9.0110   69.1590 C.3   155  PRO155      0.0237
     59  CD        50.6730    8.6080   68.9570 C.3   155  PRO155      0.0939
     60  N         52.0820   12.3160   66.5740 N.am  156  ALA156     -0.1964
     61  CA        52.8320   12.7110   65.3850 C.3   156  ALA156      0.1728
     62  C         52.0410   12.7840   64.0760 C.2   156  ALA156      0.2616
     63  O         52.1340   13.7960   63.3700 O.2   156  ALA156     -0.2715
     64  CB        54.0830   11.8330   65.2180 C.3   156  ALA156      0.0334
     65  N         51.2770   11.7370   63.7480 N.am  157  TYR157     -0.1974
     66  CA        50.5160   11.7240   62.4980 C.3   157  TYR157      0.1639
     67  C         49.5390   12.9130   62.4520 C.2   157  TYR157      0.2290
     68  O         49.1640   13.4060   61.3680 O.2   157  TYR157     -0.2864
     69  CB        49.8340   10.3580   62.2760 C.3   157  TYR157      0.0560
     70  CG        49.8080    9.8510   60.8090 C.ar  157  TYR157     -0.0198
     71  CD1       50.9750    9.7670   60.0430 C.ar  157  TYR157     -0.0009
     72  CD2       48.6020    9.4400   60.2040 C.ar  157  TYR157     -0.0009
     73  CE1       50.9360    9.2930   58.7170 C.ar  157  TYR157      0.0417
     74  CE2       48.5630    8.9660   58.8740 C.ar  157  TYR157      0.0417
     75  CZ        49.7250    8.9040   58.1420 C.ar  157  TYR157      0.1957
     76  OH        49.6700    8.5390   56.8130 O.3   157  TYR157     -0.2866
     77  N         47.7760   14.8280   59.4610 N.3   160  MET160     -0.1245
     78  CA        47.8390   13.9270   58.3050 C.3   160  MET160      0.1570
     79  C         46.8680   12.7380   58.5380 C.2   160  MET160      0.2261
     80  O         46.4000   12.0900   57.5700 O.2   160  MET160     -0.2867
     81  CB        49.2610   13.4380   58.0760 C.3   160  MET160      0.0387
     82  CG        49.3500   12.4040   56.9610 C.3   160  MET160      0.0595
     83  SD        48.6890   12.9380   55.3300 S.3   160  MET160     -0.1393
     84  CE        49.8510   12.0130   54.1940 C.3   160  MET160      0.0692
     85  N         53.4370    0.9370   58.6770 N.3   192  PRO192     -0.2116
     86  CA        54.5830    1.7220   58.1990 C.3   192  PRO192      0.1372
     87  C         55.6280    0.9790   57.3740 C.2   192  PRO192      0.2244
     88  O         56.0550   -0.1130   57.7280 O.2   192  PRO192     -0.2868
     89  CB        55.1810    2.2850   59.5000 C.3   192  PRO192      0.0268
     90  CG        54.0180    2.3600   60.4250 C.3   192  PRO192      0.0207
     91  CD        53.3370    1.0210   60.1440 C.3   192  PRO192      0.0892
     92  N         60.1870    4.4240   53.6790 N.3   195  THR195     -0.1203
     93  CA        60.4980    5.1900   52.4890 C.3   195  THR195      0.1994
     94  C         61.5990    6.1320   52.9750 C.2   195  THR195      0.2618
     95  O         61.9940    6.0830   54.1480 O.2   195  THR195     -0.2717
     96  CB        59.2910    6.0480   52.0580 C.3   195  THR195      0.1784
     97  OG1       58.0710    5.3830   52.3970 O.3   195  THR195     -0.2211
     98  CG2       59.3070    6.3020   50.5830 C.3   195  THR195      0.0376
     99  N         62.0660    7.0110   52.0960 N.am  196  LEU196     -0.1965
    100  CA        63.0960    7.9790   52.4680 C.3   196  LEU196      0.1728
    101  C         62.6660    8.6590   53.7690 C.2   196  LEU196      0.2616
    102  O         63.3580    8.5330   54.7930 O.2   196  LEU196     -0.2715
    103  CB        63.2490    9.0220   51.3550 C.3   196  LEU196      0.0311
    104  CG        64.3740   10.0750   51.3670 C.3   196  LEU196      0.0022
    105  CD1       64.1440   11.1270   52.4620 C.3   196  LEU196      0.0001
    106  CD2       65.7480    9.4110   51.4860 C.3   196  LEU196      0.0001
    107  N         61.4870    9.2990   53.7280 N.am  197  ALA197     -0.1963
    108  CA        60.9060   10.0110   54.8700 C.3   197  ALA197      0.1728
    109  C         61.0020    9.3170   56.2370 C.2   197  ALA197      0.2616
    110  O         61.3800    9.9580   57.2400 O.2   197  ALA197     -0.2715
    111  CB        59.4710   10.3410   54.5890 C.3   197  ALA197      0.0334
    112  N         60.6200    8.0350   56.2910 N.am  198  MET198     -0.1977
    113  CA        60.6410    7.2550   57.5380 C.3   198  MET198      0.1605
    114  C         62.0500    6.9310   58.0490 C.2   198  MET198      0.2287
    115  O         62.3110    6.9230   59.2600 O.2   198  MET198     -0.2864
    116  CB        59.7990    5.9890   57.3830 C.3   198  MET198      0.0413
    117  CG        58.3450    6.3120   57.1430 C.3   198  MET198      0.0598
    118  SD        57.8550    7.4620   58.3660 S.3   198  MET198     -0.1393
    119  CE        57.1880    6.2550   59.6040 C.3   198  MET198      0.0692
    120  N         64.4040    8.8480   57.6870 N.3   200  ALA200     -0.1231
    121  CA        64.7740   10.1430   58.2320 C.3   200  ALA200      0.1694
    122  C         64.3880   10.2690   59.7000 C.2   200  ALA200      0.2591
    123  O         65.2530   10.4600   60.5480 O.2   200  ALA200     -0.2718
    124  CB        64.1220   11.2540   57.4260 C.3   200  ALA200      0.0304
    125  N         63.1010   10.1860   60.0080 N.am  201  ILE201     -0.1980
    126  CA        62.6860   10.3050   61.4050 C.3   201  ILE201      0.1595
    127  C         63.3120    9.2660   62.3270 C.2   201  ILE201      0.2287
    128  O         63.7160    9.5930   63.4570 O.2   201  ILE201     -0.2864
    129  CB        61.1470   10.2940   61.5870 C.3   201  ILE201      0.0276
    130  CG1       60.4700    9.3540   60.5960 C.3   201  ILE201      0.0022
    131  CG2       60.6120   11.6770   61.4670 C.3   201  ILE201      0.0022
    132  CD1       60.2600    7.9470   61.1390 C.3   201  ILE201      0.0001
    133  N         64.5560   13.9720   63.2620 N.3   206  LEU206     -0.1245
    134  CA        63.5640   14.7350   63.9840 C.3   206  LEU206      0.1561
    135  C         64.1700   14.9420   65.3690 C.2   206  LEU206      0.2260
    136  O         63.9740   15.9790   65.9790 O.2   206  LEU206     -0.2867
    137  CB        62.2440   13.9550   64.0650 C.3   206  LEU206      0.0270
    138  CG        60.9930   14.7180   63.5950 C.3   206  LEU206      0.0019
    139  CD1       61.0370   15.0750   62.0950 C.3   206  LEU206      0.0001
    140  CD2       59.7990   13.8730   63.8770 C.3   206  LEU206      0.0001
    141  N         58.1380    7.1090   67.3320 N.3   214  ILE214     -0.1245
    142  CA        57.8280    6.4330   66.1040 C.3   214  ILE214      0.1561
    143  C         58.5010    5.0660   66.0870 C.2   214  ILE214      0.2260
    144  O         57.9460    4.1180   65.5400 O.2   214  ILE214     -0.2867
    145  CB        58.3030    7.2580   64.9080 C.3   214  ILE214      0.0252
    146  CG1       57.4210    8.4980   64.7650 C.3   214  ILE214      0.0019
    147  CG2       58.3610    6.4030   63.6310 C.3   214  ILE214      0.0019
    148  CD1       58.0680    9.6380   63.9660 C.3   214  ILE214      0.0001
    149  N         56.3590    2.7830   68.0140 N.3   217  LEU217     -0.1245
    150  CA        55.1320    2.5840   67.2760 C.3   217  LEU217      0.1561
    151  C         55.3650    1.5370   66.1750 C.2   217  LEU217      0.2260
    152  O         54.5510    0.6280   66.0180 O.2   217  LEU217     -0.2867
    153  CB        54.6580    3.9130   66.6850 C.3   217  LEU217      0.0270
    154  CG        53.4940    3.9730   65.6910 C.3   217  LEU217      0.0019
    155  CD1       52.7780    5.2830   65.8380 C.3   217  LEU217      0.0001
    156  CD2       53.9820    3.7840   64.2500 C.3   217  LEU217      0.0001
@<TRIPOS>BOND
     1     4     3    2
     2     1     2    1
     3     8     6    1
     4     2     3    1
     5     2     5    1
     6     6     5    1
     7     5     7    1
     8     9    10    1
     9    10    11    1
    10    12    11    2
    11    98    96    1
    12   103   104    1
    13   103   100    1
    14   104   106    1
    15   104   105    1
    16    96    97    1
    17    96    93    1
    18    99   100    1
    19    99    94   am
    20   100   101    1
    21    93    94    1
    22    93    92    1
    23    94    95    2
    24   107   101   am
    25   107   108    1
    26   101   102    2
    27    84    83    1
    28   111   108    1
    29   108   109    1
    30    83    82    1
    31    34    35    1
    32   109   112   am
    33   109   110    2
    34   112   113    1
    35    76    75    1
    36    82    81    1
    37    35    38    1
    38    35    36    1
    39   117   116    1
    40   117   118    1
    41    38    39    1
    42    87    88    2
    43    87    86    1
    44   116   113    1
    45   124   121    1
    46    13    14    1
    47    29    28    1
    48   113   114    1
    49    80    79    2
    50   120   121    1
    51    28    27    1
    52    18    19    1
    53    18    17    1
    54   114   115    2
    55    41    39   ar
    56    41    43   ar
    57    81    78    1
    58    75    73   ar
    59    75    74   ar
    60    86    85    1
    61    86    89    1
    62   121   122    1
    63    39    40   ar
    64    78    79    1
    65    78    77    1
    66    36    37    2
    67   118   119    1
    68    21    19   am
    69    85    91    1
    70    19    20    2
    71    73    71   ar
    72    14    17    1
    73    14    15    1
    74    74    72   ar
    75    43    44   ar
    76    89    90    1
    77    27    26    1
    78    40    42   ar
    79    26    23    1
    80   122   125   am
    81   122   123    2
    82    15    16    2
    83   125   126    1
    84    71    70   ar
    85    91    90    1
    86    72    70   ar
    87    44    42   ar
    88   130   132    1
    89   130   129    1
    90    70    69    1
    91    22    23    1
    92    23    24    1
    93    68    67    2
    94    25    24    2
    95   126   129    1
    96   126   127    1
    97   131   129    1
    98    24    30   am
    99   139   138    1
   100    69    66    1
   101   127   128    2
   102    67    66    1
   103    66    65    1
   104    30    31    1
   105    52    51    1
   106   133   134    1
   107    63    62    2
   108    31    32    1
   109   138   140    1
   110   138   137    1
   111   147   145    1
   112    65    62   am
   113    51    50    1
   114   148   146    1
   115   134   137    1
   116   134   135    1
   117    62    61    1
   118   156   154    1
   119   146   145    1
   120    32    33    2
   121   145   142    1
   122    50    49    1
   123    64    61    1
   124   135   136    2
   125    61    60    1
   126   144   143    2
   127   154   155    1
   128   154   153    1
   129   152   151    2
   130   143   142    1
   131   142   141    1
   132   151   150    1
   133    56    55    2
   134    49    46    1
   135    60    55   am
   136    48    47    2
   137   153   150    1
   138    55    54    1
   139    45    46    1
   140   150   149    1
   141    47    46    1
   142    47    53   am
   143    53    54    1
   144    53    59    1
   145    54    57    1
   146    59    58    1
   147    58    57    1
