@<TRIPOS>MOLECULE
tmp/1bvyB00.pdb
 134 131 0 0 0
SMALL
GASTEIGER

@<TRIPOS>ATOM
      1  N          7.6200   61.7570   64.3030 N.3    10  SER10      -0.1202
      2  CA         8.3070   61.3440   65.5220 C.3    10  SER10       0.2020
      3  C          9.2520   60.1750   65.2700 C.2    10  SER10       0.2619
      4  O          8.8920   59.2860   64.4990 O.2    10  SER10      -0.2717
      5  CB         7.2860   60.9410   66.5750 C.3    10  SER10       0.2103
      6  OG         7.8420   60.8070   67.8680 O.3    10  SER10      -0.2182
      7  N         10.4030   60.2110   65.9330 N.am   11  ASN11      -0.1960
      8  CA        11.3510   59.1010   65.9330 C.3    11  ASN11       0.1819
      9  C         11.3440   58.4290   67.3060 C.2    11  ASN11       0.2621
     10  O         11.2720   57.2030   67.4130 O.2    11  ASN11      -0.2715
     11  CB        12.7540   59.5540   65.5550 C.3    11  ASN11       0.1195
     12  CG        12.9910   59.9490   64.1200 C.2    11  ASN11       0.2630
     13  OD1       12.2410   59.6610   63.1820 O.2    11  ASN11      -0.2716
     14  ND2       14.1000   60.6650   63.9020 N.am   11  ASN11      -0.0877
     15  N         11.3830   59.2070   68.3840 N.am   12  MET12      -0.1977
     16  CA        11.3480   58.6100   69.7190 C.3    12  MET12       0.1605
     17  C         10.0500   58.7980   70.4920 C.2    12  MET12       0.2287
     18  O         10.0490   58.5830   71.7150 O.2    12  MET12      -0.2864
     19  CB        12.5450   59.1730   70.5180 C.3    12  MET12       0.0413
     20  CG        13.8240   59.1930   69.6640 C.3    12  MET12       0.0598
     21  SD        15.2860   59.6460   70.6280 S.3    12  MET12      -0.1393
     22  CE        16.3960   60.2190   69.3350 C.3    12  MET12       0.0692
     23  N          8.0290   61.3490   71.5580 N.3    14  THR14      -0.1203
     24  CA         7.6160   62.5560   72.2720 C.3    14  THR14       0.1994
     25  C          6.5060   63.2750   71.5210 C.2    14  THR14       0.2617
     26  O          5.4310   63.5320   72.0640 O.2    14  THR14      -0.2717
     27  CB         8.8180   63.4970   72.4660 C.3    14  THR14       0.1784
     28  OG1        9.8350   62.7910   73.1840 O.3    14  THR14      -0.2211
     29  CG2        8.4310   64.7060   73.2950 C.3    14  THR14       0.0376
     30  N          6.7730   63.5850   70.2550 N.am   15  ALA15      -0.1979
     31  CA         5.8040   64.1870   69.3530 C.3    15  ALA15       0.1597
     32  C          4.6060   63.2800   69.1050 C.2    15  ALA15       0.2287
     33  O          3.4710   63.7540   69.0230 O.2    15  ALA15      -0.2864
     34  CB         6.4530   64.5300   68.0120 C.3    15  ALA15       0.0319
     35  N          8.8560   66.7960   65.6490 N.3    56  ALA56      -0.1231
     36  CA        10.2080   67.0210   66.1190 C.3    56  ALA56       0.1694
     37  C         11.1140   67.4110   64.9580 C.2    56  ALA56       0.2593
     38  O         10.6830   67.5230   63.8100 O.2    56  ALA56      -0.2718
     39  CB        10.7550   65.7730   66.8070 C.3    56  ALA56       0.0304
     40  N         12.3790   67.5950   65.2850 N.am   57  SER57      -0.1938
     41  CA        13.4430   67.8600   64.3320 C.3    57  SER57       0.2055
     42  C         14.6380   66.9690   64.6610 C.2    57  SER57       0.2643
     43  O         14.9160   66.7150   65.8370 O.2    57  SER57      -0.2714
     44  CB        13.8470   69.3370   64.3680 C.3    57  SER57       0.2130
     45  OG        12.7610   70.1750   64.0180 O.3    57  SER57      -0.2179
     46  N         15.3630   66.4880   63.6580 N.am   58  TYR58      -0.1959
     47  CA        16.5900   65.7360   63.9430 C.3    58  TYR58       0.1771
     48  C         17.7500   66.3440   63.1670 C.2    58  TYR58       0.2620
     49  O         17.8410   66.2130   61.9480 O.2    58  TYR58      -0.2715
     50  CB        16.3860   64.2350   63.6590 C.3    58  TYR58       0.0574
     51  CG        15.6990   63.6260   64.8810 C.ar   58  TYR58      -0.0198
     52  CD1       14.3170   63.7170   65.0050 C.ar   58  TYR58      -0.0009
     53  CD2       16.4260   63.0000   65.8820 C.ar   58  TYR58      -0.0009
     54  CE1       13.6880   63.1750   66.1100 C.ar   58  TYR58       0.0417
     55  CE2       15.8000   62.4580   66.9880 C.ar   58  TYR58       0.0417
     56  CZ        14.4270   62.5510   67.0950 C.ar   58  TYR58       0.1957
     57  OH        13.7760   62.0250   68.1860 O.3    58  TYR58      -0.2866
     58  N         18.6180   67.0330   63.8960 N.am   59  ASN59      -0.1958
     59  CA        19.7330   67.7400   63.2790 C.3    59  ASN59       0.1819
     60  C         19.2630   68.5800   62.0960 C.2    59  ASN59       0.2621
     61  O         19.9690   68.6690   61.0840 O.2    59  ASN59      -0.2715
     62  CB        20.8190   66.7600   62.8220 C.3    59  ASN59       0.1195
     63  CG        21.6290   66.1820   63.9620 C.2    59  ASN59       0.2630
     64  OD1       21.2850   65.1160   64.5440 O.2    59  ASN59      -0.2716
     65  ND2       22.7340   66.8610   64.3500 N.am   59  ASN59      -0.0877
     66  N         18.0860   69.1920   62.2100 N.am   60  GLY60      -0.1954
     67  CA        17.5780   70.0550   61.1510 C.3    60  GLY60       0.1869
     68  C         16.7120   69.3420   60.1400 C.2    60  GLY60       0.2309
     69  O         16.2350   69.9450   59.1760 O.2    60  GLY60      -0.2863
     70  N          8.1900   70.1870   68.7250 N.3    91  CYS91      -0.1221
     71  CA         9.0000   69.4680   69.6970 C.3    91  CYS91       0.1808
     72  C         10.4780   69.5910   69.3050 C.2    91  CYS91       0.2602
     73  O         10.9100   69.0960   68.2670 O.2    91  CYS91      -0.2717
     74  CB         8.6040   67.9990   69.8290 C.3    91  CYS91       0.0970
     75  SG         6.9160   67.6960   70.3830 S.3    91  CYS91      -0.0800
     76  N         11.2330   70.2740   70.1580 N.am   92  GLY92      -0.1942
     77  CA        12.6360   70.5390   69.9420 C.3    92  GLY92       0.2014
     78  C         13.4340   70.5470   71.2240 C.2    92  GLY92       0.2638
     79  O         12.9120   70.4210   72.3330 O.2    92  GLY92      -0.2714
     80  N         14.7430   70.7000   71.0570 N.am   93  ASP93      -0.1971
     81  CA        15.6660   70.7950   72.1730 C.3    93  ASP93       0.1709
     82  C         16.6410   71.9470   71.9240 C.2    93  ASP93       0.2293
     83  O         17.2790   71.9940   70.8680 O.2    93  ASP93      -0.2864
     84  CB        16.4310   69.4920   72.3910 C.3    93  ASP93       0.1436
     85  CG        17.1350   69.4620   73.7310 C.2    93  ASP93       0.3671
     86  OD1       17.8800   70.4270   74.0320 O.co2  93  ASP93      -0.2456
     87  OD2       16.9480   68.4840   74.4910 O.co2  93  ASP93      -0.2456
     88  N         20.2880   71.8080   70.5280 N.3    96  TRP96      -0.1241
     89  CA        20.5100   71.7990   69.0950 C.3    96  TRP96       0.1605
     90  C         20.3950   73.2010   68.4830 C.2    96  TRP96       0.2264
     91  O         19.4320   73.5090   67.7840 O.2    96  TRP96      -0.2867
     92  CB        19.5400   70.8400   68.3750 C.3    96  TRP96       0.0550
     93  CG        20.1630   69.4660   68.4320 C.ar   96  TRP96       0.0003
     94  CD1       21.0560   68.9060   67.5570 C.ar   96  TRP96       0.0946
     95  CD2       19.9230   68.4950   69.4540 C.ar   96  TRP96       0.0152
     96  NE1       21.3890   67.6320   67.9680 N.ar   96  TRP96      -0.2442
     97  CE2       20.7020   67.3620   69.1280 C.ar   96  TRP96       0.0810
     98  CE3       19.1330   68.4870   70.5990 C.ar   96  TRP96       0.0012
     99  CZ2       20.7020   66.2180   69.9190 C.ar   96  TRP96       0.0191
    100  CZ3       19.1390   67.3520   71.3810 C.ar   96  TRP96       0.0001
    101  CH2       19.9140   66.2410   71.0360 C.ar   96  TRP96       0.0015
    102  N         19.6770   74.5290   64.8030 N.3    99  THR99      -0.1203
    103  CA        18.5920   73.7990   64.1500 C.3    99  THR99       0.1994
    104  C         17.3110   73.8430   64.9690 C.2    99  THR99       0.2618
    105  O         16.3350   73.1820   64.6110 O.2    99  THR99      -0.2717
    106  CB        18.9850   72.3340   63.8890 C.3    99  THR99       0.1784
    107  OG1       19.9310   71.8890   64.8630 O.3    99  THR99      -0.2211
    108  CG2       19.6520   72.2270   62.5250 C.3    99  THR99       0.0376
    109  N         17.3120   74.6110   66.0510 N.am  100  TYR100     -0.1961
    110  CA        16.1580   74.6360   66.9450 C.3   100  TYR100      0.1771
    111  C         14.8340   74.8580   66.2180 C.2   100  TYR100      0.2619
    112  O         14.5950   75.8860   65.5850 O.2   100  TYR100     -0.2715
    113  CB        16.3700   75.7060   68.0300 C.3   100  TYR100      0.0574
    114  CG        15.2540   75.6670   69.0510 C.ar  100  TYR100     -0.0198
    115  CD1       15.0800   74.5300   69.8320 C.ar  100  TYR100     -0.0009
    116  CD2       14.3860   76.7350   69.2290 C.ar  100  TYR100     -0.0009
    117  CE1       14.0690   74.4690   70.7680 C.ar  100  TYR100      0.0417
    118  CE2       13.3680   76.6870   70.1670 C.ar  100  TYR100      0.0417
    119  CZ        13.2200   75.5470   70.9280 C.ar  100  TYR100      0.1957
    120  OH        12.2210   75.4610   71.8660 O.3   100  TYR100     -0.2866
    121  N         13.9580   73.8690   66.3150 N.am  101  GLN101     -0.1977
    122  CA        12.6100   73.8150   65.7810 C.3   101  GLN101      0.1601
    123  C         12.5230   74.0490   64.2810 C.2   101  GLN101      0.2287
    124  O         11.4970   74.4890   63.7480 O.2   101  GLN101     -0.2864
    125  CB        11.7440   74.8460   66.5230 C.3   101  GLN101      0.0394
    126  CG        11.8700   74.6710   68.0330 C.3   101  GLN101      0.0908
    127  CD        10.8750   73.6610   68.5570 C.2   101  GLN101      0.2608
    128  OE1       10.0550   73.1350   67.8010 O.2   101  GLN101     -0.2717
    129  NE2       10.9450   73.3970   69.8550 N.am  101  GLN101     -0.0878
    130  N         12.6490   70.6580   75.3410 N.3   127  ALA127     -0.1245
    131  CA        12.8720   69.5100   76.2060 C.3   127  ALA127      0.1562
    132  C         13.8880   69.8380   77.2920 C.2   127  ALA127      0.2260
    133  O         13.8600   69.2350   78.3630 O.2   127  ALA127     -0.2867
    134  CB        13.3200   68.3140   75.3790 C.3   127  ALA127      0.0290
@<TRIPOS>BOND
     1    69    68    2
     2    68    67    1
     3    61    60    2
     4    67    66    1
     5    49    48    2
     6    60    66   am
     7    60    59    1
     8   108   106    1
     9    62    59    1
    10    62    63    1
    11    48    58   am
    12    48    47    1
    13    13    12    2
    14    59    58    1
    15    46    47    1
    16    46    42   am
    17    50    47    1
    18    50    51    1
    19   124   123    2
    20    38    37    2
    21   106   103    1
    22   106   107    1
    23    14    12   am
    24    63    65   am
    25    63    64    2
    26    45    44    1
    27    12    11    1
    28   103   102    1
    29   103   104    1
    30   123   122    1
    31     1     2    1
    32    41    44    1
    33    41    42    1
    34    41    40    1
    35     4     3    2
    36   105   104    2
    37    42    43    2
    38    51    52   ar
    39    51    53   ar
    40    37    40   am
    41    37    36    1
    42   104   109   am
    43    52    54   ar
    44     3     2    1
    45     3     7   am
    46     2     5    1
    47    11     8    1
    48   112   111    2
    49    35    36    1
    50   122   121    1
    51   122   125    1
    52    53    55   ar
    53     7     8    1
    54     8     9    1
    55   109   110    1
    56    54    56   ar
    57    36    39    1
    58   111   121   am
    59   111   110    1
    60   125   126    1
    61     5     6    1
    62   110   113    1
    63    55    56   ar
    64    56    57    1
    65     9    10    2
    66     9    15   am
    67    94    96   ar
    68    94    93   ar
    69    91    90    2
    70   128   127    2
    71    96    97   ar
    72    34    31    1
    73   113   114    1
    74   126   127    1
    75    73    72    2
    76    92    93    1
    77    92    89    1
    78    15    16    1
    79    93    95   ar
    80    90    89    1
    81   127   129   am
    82    70    71    1
    83    33    32    2
    84   114   116   ar
    85   114   115   ar
    86    89    88    1
    87    32    31    1
    88    97    95   ar
    89    97    99   ar
    90   116   118   ar
    91    72    71    1
    92    72    76   am
    93    22    21    1
    94    31    30    1
    95    95    98   ar
    96    20    19    1
    97    20    21    1
    98    71    74    1
    99    16    17    1
   100    16    19    1
   101    74    75    1
   102   115   117   ar
   103    99   101   ar
   104    77    76    1
   105    77    78    1
   106   118   119   ar
   107    30    25   am
   108    17    18    2
   109    98   100   ar
   110   117   119   ar
   111    83    82    2
   112   119   120    1
   113   101   100   ar
   114    80    78   am
   115    80    81    1
   116    78    79    2
   117    25    26    2
   118    25    24    1
   119    23    24    1
   120    82    81    1
   121    81    84    1
   122    24    27    1
   123    84    85    1
   124    27    28    1
   125    27    29    1
   126    85    86   ar
   127    85    87   ar
   128   130   131    1
   129   134   131    1
   130   131   132    1
   131   132   133    2
