@<TRIPOS>MOLECULE
tmp/1bw9A01.pdb
 144 137 0 0 0
SMALL
GASTEIGER

@<TRIPOS>ATOM
      1  N          8.8700   33.9770  -15.5850 N.3    38  ALA38      -0.1231
      2  CA         8.8880   35.4230  -15.3150 C.3    38  ALA38       0.1694
      3  C         10.0820   36.0910  -16.0040 C.2    38  ALA38       0.2593
      4  O         11.1200   35.4310  -16.1130 O.2    38  ALA38      -0.2718
      5  CB         8.7230   35.8040  -13.8440 C.3    38  ALA38       0.0304
      6  N          9.9100   37.3300  -16.4840 N.am   39  GLY39      -0.1942
      7  CA        11.0190   38.0330  -17.1300 C.3    39  GLY39       0.2014
      8  C         10.5260   39.3470  -17.6690 C.2    39  GLY39       0.2639
      9  O          9.3380   39.4640  -17.9700 O.2    39  GLY39      -0.2714
     10  N         11.4420   40.3050  -17.8300 N.am   40  GLY40      -0.1954
     11  CA        11.0670   41.6250  -18.2930 C.3    40  GLY40       0.1869
     12  C         10.6260   41.7590  -19.7370 C.2    40  GLY40       0.2309
     13  O         10.6720   40.8010  -20.5050 O.2    40  GLY40      -0.2863
     14  N         16.7200   33.8790  -17.8910 N.3    63  MET63      -0.1245
     15  CA        15.7890   34.0920  -16.7510 C.3    63  MET63       0.1570
     16  C         15.6020   32.7870  -15.9720 C.2    63  MET63       0.2261
     17  O         15.5460   32.7850  -14.7430 O.2    63  MET63      -0.2867
     18  CB        14.4150   34.6330  -17.1880 C.3    63  MET63       0.0387
     19  CG        14.4410   36.0790  -17.6490 C.3    63  MET63       0.0595
     20  SD        15.1680   37.2330  -16.4130 S.3    63  MET63      -0.1393
     21  CE        14.0810   36.9320  -14.9810 C.3    63  MET63       0.0692
     22  N         18.6610   32.2670  -13.9020 N.3    66  LYS66      -0.1231
     23  CA        18.7460   33.3210  -12.9380 C.3    66  LYS66       0.1693
     24  C         17.8580   32.9880  -11.7340 C.2    66  LYS66       0.2591
     25  O         18.2600   33.0960  -10.5670 O.2    66  LYS66      -0.2718
     26  CB        18.2170   34.6100  -13.5490 C.3    66  LYS66       0.0285
     27  CG        18.2880   35.8350  -12.6390 C.3    66  LYS66       0.0035
     28  CD        17.7670   37.0900  -13.3130 C.3    66  LYS66       0.0206
     29  CE        18.5500   37.4560  -14.5860 C.3    66  LYS66       0.1093
     30  NZ        18.2230   38.8250  -15.0860 N.3    66  LYS66      -0.1314
     31  N         16.6150   32.6210  -12.0150 N.am   67  MET67      -0.1979
     32  CA        15.7080   32.3070  -10.9010 C.3    67  MET67       0.1605
     33  C         16.2290   31.1210  -10.1190 C.2    67  MET67       0.2287
     34  O         16.2600   31.1350   -8.8940 O.2    67  MET67      -0.2864
     35  CB        14.3400   31.9350  -11.4210 C.3    67  MET67       0.0413
     36  CG        13.7490   33.0910  -12.1990 C.3    67  MET67       0.0598
     37  SD        13.2560   34.4030  -11.0710 S.3    67  MET67      -0.1393
     38  CE        12.1420   35.3260  -12.1750 C.3    67  MET67       0.0692
     39  N         10.5010   35.8210  -21.1410 N.3    78  LYS78      -0.1245
     40  CA        10.9130   37.1660  -21.5450 C.3    78  LYS78       0.1561
     41  C         10.0310   37.6490  -22.6820 C.2    78  LYS78       0.2260
     42  O          9.5730   36.8330  -23.4840 O.2    78  LYS78      -0.2867
     43  CB        12.3810   37.2780  -22.0260 C.3    78  LYS78       0.0271
     44  CG        13.0150   38.6120  -21.7800 C.3    78  LYS78       0.0035
     45  CD        13.7420   38.6740  -20.4400 C.3    78  LYS78       0.0206
     46  CE        14.3710   40.0620  -20.2360 C.3    78  LYS78       0.1093
     47  NZ        15.1280   40.2260  -18.9660 N.3    78  LYS78      -0.1314
     48  N          4.7040   36.1030  -15.8920 N.3   114  TRP114     -0.1227
     49  CA         4.6880   37.3970  -15.1840 C.3   114  TRP114      0.1737
     50  C          5.7810   38.2670  -15.7470 C.2   114  TRP114      0.2596
     51  O          6.9360   37.8570  -15.8010 O.2   114  TRP114     -0.2718
     52  CB         4.9960   37.1730  -13.7260 C.3   114  TRP114      0.0564
     53  CG         3.8620   36.5010  -13.0670 C.ar  114  TRP114      0.0003
     54  CD1        3.5430   35.1800  -13.1180 C.ar  114  TRP114      0.0946
     55  CD2        2.9350   37.1500  -12.2280 C.ar  114  TRP114      0.0152
     56  NE1        2.4100   34.9740  -12.3650 N.ar  114  TRP114     -0.2442
     57  CE2        2.0100   36.1740  -11.8240 C.ar  114  TRP114      0.0810
     58  CE3        2.8110   38.4780  -11.7990 C.ar  114  TRP114      0.0012
     59  CZ2        0.9700   36.5140  -10.9230 C.ar  114  TRP114      0.0191
     60  CZ3        1.7710   38.8120  -10.9430 C.ar  114  TRP114      0.0001
     61  CH2        0.8710   37.8350  -10.5000 C.ar  114  TRP114      0.0015
     62  N          5.4150   39.4730  -16.1740 N.am  115  THR115     -0.1939
     63  CA         6.3710   40.3910  -16.7770 C.3   115  THR115      0.2028
     64  C          6.9610   41.4000  -15.7970 C.2   115  THR115      0.2643
     65  O          6.6180   41.4250  -14.6190 O.2   115  THR115     -0.2714
     66  CB         5.7910   41.0760  -18.0500 C.3   115  THR115      0.1808
     67  OG1        6.8460   41.5010  -18.8980 O.3   115  THR115     -0.2208
     68  CG2        4.9190   42.2640  -17.6520 C.3   115  THR115      0.0379
     69  N          7.8390   42.2610  -16.3290 N.am  116  GLY116     -0.1940
     70  CA         8.5160   43.2820  -15.5350 C.3   116  GLY116      0.1999
     71  C          9.2400   44.1960  -16.5030 C.2   116  GLY116      0.2481
     72  O          9.0980   44.0490  -17.7080 O.2   116  GLY116     -0.2729
     73  N         10.0060   45.1480  -15.9880 N.am  117  PRO117     -0.2715
     74  CA        10.7090   46.0660  -16.8830 C.3   117  PRO117      0.1536
     75  C         11.9830   45.4430  -17.3970 C.2   117  PRO117      0.2598
     76  O         12.5480   44.5360  -16.7910 O.2   117  PRO117     -0.2715
     77  CB        11.0250   47.3320  -16.0520 C.3   117  PRO117      0.0310
     78  CG        10.4420   47.0970  -14.6660 C.3   117  PRO117      0.0237
     79  CD        10.0520   45.6210  -14.5820 C.3   117  PRO117      0.0939
     80  N         12.4280   46.0090  -18.5170 N.am  118  ASP118     -0.1972
     81  CA        13.6490   45.6660  -19.1970 C.3   118  ASP118      0.1709
     82  C         13.9890   46.8740  -20.0750 C.2   118  ASP118      0.2293
     83  O         13.4780   47.9690  -19.8260 O.2   118  ASP118     -0.2864
     84  CB        13.6980   44.2730  -19.8510 C.3   118  ASP118      0.1436
     85  CG        15.0990   43.7920  -20.1620 C.2   118  ASP118      0.3671
     86  OD1       15.6510   44.2550  -21.2510 O.co2 118  ASP118     -0.2456
     87  OD2       15.6710   42.9980  -19.4470 O.co2 118  ASP118     -0.2456
     88  N          5.0860   42.6520  -12.6280 N.3   137  PHE137     -0.1241
     89  CA         5.9010   43.0730  -11.5380 C.3   137  PHE137      0.1605
     90  C          6.4960   44.4220  -11.9020 C.2   137  PHE137      0.2264
     91  O          6.5400   44.8360  -13.0540 O.2   137  PHE137     -0.2867
     92  CB         7.0930   42.1750  -11.2960 C.3   137  PHE137      0.0534
     93  CG         6.7110   40.8060  -10.9270 C.ar  137  PHE137     -0.0203
     94  CD1        5.8310   40.5420   -9.8760 C.ar  137  PHE137     -0.0042
     95  CD2        7.2660   39.7450  -11.6300 C.ar  137  PHE137     -0.0042
     96  CE1        5.4870   39.2370   -9.5140 C.ar  137  PHE137     -0.0003
     97  CE2        6.9350   38.4390  -11.2790 C.ar  137  PHE137     -0.0003
     98  CZ         6.0570   38.1810  -10.2240 C.ar  137  PHE137     -0.0000
     99  N         14.0680   48.3260   -9.8950 N.3   149  SER149     -0.1217
    100  CA        14.9290   47.3180   -9.3150 C.3   149  SER149      0.1889
    101  C         16.3820   47.6450   -9.6160 C.2   149  SER149      0.2288
    102  O         17.2570   46.8910   -9.2450 O.2   149  SER149     -0.2866
    103  CB        14.6160   45.9570   -9.9160 C.3   149  SER149      0.2089
    104  OG        14.8980   46.0290  -11.2960 O.3   149  SER149     -0.2183
    105  N         22.4900   42.0060  -19.8380 N.3   262  ASN262     -0.1240
    106  CA        22.0150   40.6600  -20.0280 C.3   262  ASN262      0.1653
    107  C         22.7500   40.0170  -21.2380 C.2   262  ASN262      0.2266
    108  O         23.0950   40.7080  -22.2180 O.2   262  ASN262     -0.2867
    109  CB        20.5370   40.6870  -20.4710 C.3   262  ASN262      0.1155
    110  CG        19.6360   40.7250  -19.2620 C.2   262  ASN262      0.2627
    111  OD1       19.1010   41.7790  -18.9600 O.2   262  ASN262     -0.2716
    112  ND2       19.4950   39.5900  -18.5780 N.am  262  ASN262     -0.0877
    113  N         23.6570   39.6910  -12.2500 N.3   288  ASN288     -0.1240
    114  CA        22.6870   40.7490  -12.3530 C.3   288  ASN288      0.1653
    115  C         21.3680   40.4050  -11.7300 C.2   288  ASN288      0.2266
    116  O         20.3930   41.0820  -12.0350 O.2   288  ASN288     -0.2867
    117  CB        22.5580   41.1720  -13.8260 C.3   288  ASN288      0.1155
    118  CG        21.7990   40.2080  -14.7330 C.2   288  ASN288      0.2627
    119  OD1       21.0830   39.3140  -14.2900 O.2   288  ASN288     -0.2716
    120  ND2       21.9580   40.4130  -16.0280 N.am  288  ASN288     -0.0877
    121  N         17.9910   42.3540   -9.7260 N.3   291  GLY291     -0.1210
    122  CA        16.7280   42.8650  -10.2080 C.3   291  GLY291      0.1956
    123  C         15.6000   41.8910   -9.8720 C.2   291  GLY291      0.2611
    124  O         14.5340   42.2400   -9.3210 O.2   291  GLY291     -0.2717
    125  N         15.8400   40.6280  -10.2260 N.am  292  ALA292     -0.1979
    126  CA        14.8670   39.6000   -9.9870 C.3   292  ALA292      0.1597
    127  C         14.6680   39.3800   -8.4950 C.2   292  ALA292      0.2287
    128  O         13.5610   39.1780   -8.0090 O.2   292  ALA292     -0.2864
    129  CB        15.2280   38.3370  -10.7490 C.3   292  ALA292      0.0319
    130  N         12.4000   42.2150   -7.4340 N.3   295  LEU295     -0.1231
    131  CA        11.0130   42.0660   -7.8770 C.3   295  LEU295      0.1693
    132  C         10.2840   40.8810   -7.2610 C.2   295  LEU295      0.2591
    133  O          9.1740   41.0060   -6.7020 O.2   295  LEU295     -0.2718
    134  CB        10.8780   42.0340   -9.4010 C.3   295  LEU295      0.0284
    135  CG        11.2500   43.3700  -10.0500 C.3   295  LEU295      0.0019
    136  CD1       11.2300   43.2500  -11.5780 C.3   295  LEU295      0.0001
    137  CD2       10.3000   44.4970   -9.5760 C.3   295  LEU295      0.0001
    138  N         10.8720   39.6900   -7.3940 N.am  296  VAL296     -0.1980
    139  CA        10.2560   38.4870   -6.8400 C.3   296  VAL296      0.1595
    140  C         10.2480   38.5220   -5.3220 C.2   296  VAL296      0.2287
    141  O          9.2630   38.1750   -4.6730 O.2   296  VAL296     -0.2864
    142  CB        10.9290   37.2120   -7.3290 C.3   296  VAL296      0.0276
    143  CG1       10.3470   35.9670   -6.6580 C.3   296  VAL296      0.0022
    144  CG2       10.8460   37.1480   -8.8390 C.3   296  VAL296      0.0022
@<TRIPOS>BOND
     1    42    41    2
     2    41    40    1
     3   108   107    2
     4    43    44    1
     5    43    40    1
     6    44    45    1
     7    40    39    1
     8    86    85   ar
     9   107   106    1
    10    13    12    2
    11   109   106    1
    12   109   110    1
    13    45    46    1
    14    46    47    1
    15    85    84    1
    16    85    87   ar
    17    82    83    2
    18    82    81    1
    19   106   105    1
    20    84    81    1
    21    12    11    1
    22   110   111    2
    23   110   112   am
    24    81    80    1
    25    67    66    1
    26    80    75   am
    27    11    10    1
    28    66    68    1
    29    66    63    1
    30     9     8    2
    31    14    15    1
    32    10     8   am
    33    72    71    2
    34     8     7    1
    35    19    18    1
    36    19    20    1
    37    75    74    1
    38    75    76    2
    39    18    15    1
    40     7     6    1
    41    74    77    1
    42    74    73    1
    43    63    62    1
    44    63    64    1
    45    15    16    1
    46    71    73   am
    47    71    70    1
    48     6     3   am
    49    20    21    1
    50    69    64   am
    51    69    70    1
    52    62    50   am
    53     4     3    2
    54    77    78    1
    55   120   118   am
    56     3     2    1
    57    73    79    1
    58    16    17    2
    59    48    49    1
    60    51    50    2
    61    64    65    2
    62    50    49    1
    63     1     2    1
    64     2     5    1
    65    49    52    1
    66    30    29    1
    67   118   119    2
    68   118   117    1
    69    78    79    1
    70    29    28    1
    71    22    23    1
    72   117   114    1
    73    52    53    1
    74    26    23    1
    75    26    27    1
    76    28    27    1
    77    54    53   ar
    78    54    56   ar
    79    53    55   ar
    80    91    90    2
    81    23    24    1
    82    88    89    1
    83    56    57   ar
    84   114   113    1
    85   114   115    1
    86    55    57   ar
    87    55    58   ar
    88    36    35    1
    89    36    37    1
    90    38    37    1
    91   116   115    2
    92    31    24   am
    93    31    32    1
    94    90    89    1
    95    57    59   ar
    96    58    60   ar
    97    24    25    2
    98    95    97   ar
    99    95    93   ar
   100   136   135    1
   101    89    92    1
   102    35    32    1
   103    92    93    1
   104   104   103    1
   105    97    98   ar
   106    60    61   ar
   107    93    94   ar
   108    59    61   ar
   109    32    33    1
   110   129   126    1
   111   125   126    1
   112   125   123   am
   113    98    96   ar
   114   122   123    1
   115   122   121    1
   116    33    34    2
   117   135   137    1
   118   135   134    1
   119   126   127    1
   120   103   100    1
   121    99   100    1
   122    94    96   ar
   123   123   124    2
   124   101   100    1
   125   101   102    2
   126   134   131    1
   127   144   142    1
   128   127   128    2
   129   131   130    1
   130   131   132    1
   131   138   132   am
   132   138   139    1
   133   142   139    1
   134   142   143    1
   135   132   133    2
   136   139   140    1
   137   140   141    2
