@<TRIPOS>MOLECULE
tmp/1bw9B00.pdb
 131 121 0 0 0
SMALL
GASTEIGER

@<TRIPOS>ATOM
      1  N         23.8760   37.4710   39.6340 N.3   119  VAL119     -0.1231
      2  CA        24.5600   38.4400   40.4370 C.3   119  VAL119      0.1692
      3  C         25.5900   39.1980   39.6290 C.2   119  VAL119      0.2592
      4  O         26.4460   38.6270   38.9480 O.2   119  VAL119     -0.2718
      5  CB        25.1670   37.7670   41.6620 C.3   119  VAL119      0.0266
      6  CG1       26.0170   38.7290   42.4990 C.3   119  VAL119      0.0020
      7  CG2       24.0740   37.1200   42.5190 C.3   119  VAL119      0.0020
      8  N         25.4510   40.5200   39.6790 N.am  120  ASN120     -0.1974
      9  CA        26.3850   41.3990   39.0250 C.3   120  ASN120      0.1688
     10  C         26.3090   41.4930   37.5340 C.2   120  ASN120      0.2292
     11  O         27.2250   42.0610   36.9140 O.2   120  ASN120     -0.2864
     12  CB        27.8170   41.1800   39.5440 C.3   120  ASN120      0.1181
     13  CG        27.9930   41.7260   40.9510 C.2   120  ASN120      0.2629
     14  OD1       27.3770   42.7400   41.3140 O.2   120  ASN120     -0.2716
     15  ND2       28.8170   41.0710   41.7710 N.am  120  ASN120     -0.0877
     16  N         13.0520   40.4540   37.8600 N.3   150  ALA150     -0.1245
     17  CA        13.0340   40.7100   39.2980 C.3   150  ALA150      0.1562
     18  C         11.6710   40.6730   39.9460 C.2   150  ALA150      0.2260
     19  O         11.4370   39.9470   40.9400 O.2   150  ALA150     -0.2867
     20  CB        13.7760   42.0030   39.6550 C.3   150  ALA150      0.0290
     21  N         16.4390   39.5410   54.2000 N.3   181  GLN181     -0.1231
     22  CA        17.8790   39.7390   54.1650 C.3   181  GLN181      0.1698
     23  C         18.2740   40.0280   52.7250 C.2   181  GLN181      0.2592
     24  O         18.2920   39.1010   51.9260 O.2   181  GLN181     -0.2718
     25  CB        18.6270   38.5000   54.6810 C.3   181  GLN181      0.0381
     26  CG        20.1300   38.5680   54.3750 C.3   181  GLN181      0.0905
     27  CD        20.8050   37.2420   54.6690 C.2   181  GLN181      0.2608
     28  OE1       21.7900   37.1560   55.4050 O.2   181  GLN181     -0.2717
     29  NE2       20.3020   36.1760   54.0950 N.am  181  GLN181     -0.0878
     30  N         18.5520   41.3060   52.4520 N.am  182  GLY182     -0.1957
     31  CA        18.9030   41.7060   51.1130 C.3   182  GLY182      0.1869
     32  C         17.7300   42.4870   50.5560 C.2   182  GLY182      0.2309
     33  O         16.6290   41.9570   50.3690 O.2   182  GLY182     -0.2863
     34  N         17.6690   44.0700   47.6490 N.3   184  GLY184     -0.1210
     35  CA        17.9200   44.2820   46.2660 C.3   184  GLY184      0.1956
     36  C         16.6150   44.3840   45.4870 C.2   184  GLY184      0.2612
     37  O         15.4910   44.6250   45.9840 O.2   184  GLY184     -0.2717
     38  N         16.7960   44.2080   44.2130 N.am  185  ALA185     -0.1965
     39  CA        15.6750   44.2780   43.2950 C.3   185  ALA185      0.1728
     40  C         14.5200   43.3620   43.6830 C.2   185  ALA185      0.2616
     41  O         13.3730   43.7550   43.7020 O.2   185  ALA185     -0.2715
     42  CB        16.1760   43.9260   41.8990 C.3   185  ALA185      0.0334
     43  N         14.8660   42.1200   43.9630 N.am  186  VAL186     -0.1963
     44  CA        13.8860   41.1150   44.3620 C.3   186  VAL186      0.1727
     45  C         13.4520   41.2840   45.8270 C.2   186  VAL186      0.2616
     46  O         12.2660   41.3540   46.1320 O.2   186  VAL186     -0.2715
     47  CB        14.4070   39.7180   44.1130 C.3   186  VAL186      0.0290
     48  CG1       13.4110   38.6360   44.5570 C.3   186  VAL186      0.0023
     49  CG2       14.7280   39.5350   42.6370 C.3   186  VAL186      0.0023
     50  N         14.4250   41.3250   46.7500 N.am  187  GLY187     -0.1955
     51  CA        14.1230   41.4920   48.1710 C.3   187  GLY187      0.1869
     52  C         13.3090   42.7550   48.4410 C.2   187  GLY187      0.2309
     53  O         12.3500   42.7320   49.2540 O.2   187  GLY187     -0.2863
     54  N         17.5440   43.9370   56.4320 N.3   204  ALA204     -0.1231
     55  CA        18.9790   44.0260   56.5230 C.3   204  ALA204      0.1694
     56  C         19.5800   44.0980   55.1280 C.2   204  ALA204      0.2592
     57  O         19.1180   43.4280   54.1960 O.2   204  ALA204     -0.2718
     58  CB        19.5600   42.8290   57.2550 C.3   204  ALA204      0.0304
     59  N         20.6210   44.9140   55.0070 N.am  205  ASP205     -0.1960
     60  CA        21.3070   45.0770   53.7630 C.3   205  ASP205      0.1840
     61  C         22.6520   45.6980   54.0140 C.2   205  ASP205      0.2623
     62  O         22.8160   46.5270   54.9000 O.2   205  ASP205     -0.2715
     63  CB        20.5670   46.0340   52.7900 C.3   205  ASP205      0.1450
     64  CG        20.9570   45.7540   51.3450 C.2   205  ASP205      0.3671
     65  OD1       22.1130   46.2320   50.9610 O.co2 205  ASP205     -0.2456
     66  OD2       20.2830   45.1210   50.5790 O.co2 205  ASP205     -0.2456
     67  N         23.6070   45.3170   53.2080 N.am  206  THR206     -0.1937
     68  CA        24.9200   45.8960   53.3760 C.3   206  THR206      0.2028
     69  C         24.9600   47.3390   52.9400 C.2   206  THR206      0.2642
     70  O         25.8710   48.0500   53.3400 O.2   206  THR206     -0.2714
     71  CB        26.0320   45.0740   52.6980 C.3   206  THR206      0.1808
     72  OG1       25.7470   44.8650   51.3370 O.3   206  THR206     -0.2208
     73  CG2       26.1870   43.7470   53.4190 C.3   206  THR206      0.0379
     74  N         23.9880   47.7440   52.1050 N.am  207  ASP207     -0.1971
     75  CA        23.8790   49.1130   51.6450 C.3   207  ASP207      0.1709
     76  C         23.0560   49.9480   52.6230 C.2   207  ASP207      0.2293
     77  O         21.8510   49.7340   52.7450 O.2   207  ASP207     -0.2864
     78  CB        23.2490   49.2240   50.2430 C.3   207  ASP207      0.1436
     79  CG        23.1680   50.6670   49.7700 C.2   207  ASP207      0.3671
     80  OD1       24.2880   51.3220   49.9030 O.co2 207  ASP207     -0.2456
     81  OD2       22.1640   51.1610   49.3300 O.co2 207  ASP207     -0.2456
     82  N         20.0240   51.8200   51.3500 N.3   210  ARG210     -0.1245
     83  CA        18.9180   50.9070   51.1470 C.3   210  ARG210      0.1563
     84  C         18.1410   50.7220   52.4380 C.2   210  ARG210      0.2260
     85  O         16.9280   50.8490   52.5050 O.2   210  ARG210     -0.2867
     86  CB        19.3980   49.5760   50.6230 C.3   210  ARG210      0.0307
     87  CG        19.5060   49.6050   49.1050 C.3   210  ARG210      0.0489
     88  CD        20.2040   48.3910   48.5040 C.3   210  ARG210      0.2205
     89  NE        20.1700   48.4980   47.0560 N.pl3 210  ARG210     -0.0865
     90  CZ        20.4470   47.5590   46.1540 C.cat 210  ARG210      0.5346
     91  NH1       20.8060   46.3530   46.4750 N.pl3 210  ARG210      0.1354
     92  NH2       20.3670   47.8470   44.8580 N.pl3 210  ARG210      0.1354
     93  N         23.6770   43.7600   60.5770 N.3   224  LEU224     -0.1245
     94  CA        24.1940   42.6160   59.8920 C.3   224  LEU224      0.1561
     95  C         24.5810   41.4860   60.8060 C.2   224  LEU224      0.2260
     96  O         24.2260   40.3100   60.6140 O.2   224  LEU224     -0.2867
     97  CB        25.2900   43.0300   58.8870 C.3   224  LEU224      0.0270
     98  CG        24.7820   44.1310   57.9330 C.3   224  LEU224      0.0019
     99  CD1       25.9350   44.8860   57.2620 C.3   224  LEU224      0.0001
    100  CD2       23.7290   43.6360   56.9150 C.3   224  LEU224      0.0001
    101  N         21.4470   39.5390   62.1000 N.3   227  VAL227     -0.1245
    102  CA        20.5370   38.8910   61.1980 C.3   227  VAL227      0.1561
    103  C         20.1010   37.4680   61.5360 C.2   227  VAL227      0.2260
    104  O         18.9240   37.1720   61.6880 O.2   227  VAL227     -0.2867
    105  CB        20.9960   39.0020   59.7640 C.3   227  VAL227      0.0252
    106  CG1       20.0010   38.2430   58.9030 C.3   227  VAL227      0.0019
    107  CG2       21.0480   40.4860   59.3530 C.3   227  VAL227      0.0019
    108  N         17.3680   36.8380   50.7830 N.3   238  CYS238     -0.1221
    109  CA        17.3360   37.3530   49.4360 C.3   238  CYS238      0.1808
    110  C         18.6570   37.9990   49.0440 C.2   238  CYS238      0.2601
    111  O         18.6740   38.9470   48.2340 O.2   238  CYS238     -0.2717
    112  CB        16.2330   38.3850   49.2260 C.3   238  CYS238      0.0970
    113  SG        14.6150   37.7590   49.6820 S.3   238  CYS238     -0.0800
    114  N         19.7310   37.5210   49.6640 N.am  239  ALA239     -0.1965
    115  CA        21.0950   38.0070   49.3780 C.3   239  ALA239      0.1728
    116  C         21.9320   36.8350   48.8450 C.2   239  ALA239      0.2616
    117  O         21.5640   36.1550   47.8580 O.2   239  ALA239     -0.2715
    118  CB        21.7240   38.6750   50.5840 C.3   239  ALA239      0.0334
    119  N         23.0340   36.5060   49.5110 N.am  240  MET240     -0.1977
    120  CA        23.8520   35.4020   49.0140 C.3   240  MET240      0.1605
    121  C         23.3240   34.0420   49.4030 C.2   240  MET240      0.2287
    122  O         22.4960   33.9420   50.3180 O.2   240  MET240     -0.2864
    123  CB        25.2890   35.5200   49.5810 C.3   240  MET240      0.0413
    124  CG        25.2730   35.5470   51.0980 C.3   240  MET240      0.0598
    125  SD        24.8070   37.1580   51.8080 S.3   240  MET240     -0.1393
    126  CE        23.6760   36.6230   53.1000 C.3   240  MET240      0.0692
    127  N         14.4910   34.4440   48.1590 N.3   260  ALA260     -0.1245
    128  CA        14.9020   34.3710   46.7690 C.3   260  ALA260      0.1562
    129  C         16.2820   33.8070   46.5240 C.2   260  ALA260      0.2260
    130  O         16.6060   33.3790   45.4060 O.2   260  ALA260     -0.2867
    131  CB        14.8840   35.7680   46.1720 C.3   260  ALA260      0.0290
@<TRIPOS>BOND
     1    11    10    2
     2    10     9    1
     3    16    17    1
     4     4     3    2
     5     9    12    1
     6     9     8    1
     7    17    20    1
     8    17    18    1
     9    12    13    1
    10     3     8   am
    11     3     2    1
    12     1     2    1
    13    18    19    2
    14     2     5    1
    15    13    14    2
    16    13    15   am
    17     5     6    1
    18     5     7    1
    19    42    39    1
    20    49    47    1
    21    39    40    1
    22    39    38    1
    23    40    41    2
    24    40    43   am
    25    43    44    1
    26    47    44    1
    27    47    48    1
    28    38    36   am
    29    44    45    1
    30    92    90    1
    31   130   129    2
    32    36    37    2
    33    36    35    1
    34    45    46    2
    35    45    50   am
    36    90    91    1
    37    90    89    2
    38   131   128    1
    39    35    34    1
    40   129   128    1
    41    50    51    1
    42   128   127    1
    43    89    88    1
    44   117   116    2
    45    51    52    1
    46   111   110    2
    47    52    53    2
    48    88    87    1
    49   116   115    1
    50   116   119   am
    51   120   121    1
    52   120   119    1
    53   120   123    1
    54   110   109    1
    55   110   114   am
    56    87    86    1
    57   112   109    1
    58   112   113    1
    59    81    79   ar
    60   115   114    1
    61   115   118    1
    62   121   122    2
    63   109   108    1
    64   123   124    1
    65    79    80   ar
    66    79    78    1
    67    78    75    1
    68    33    32    2
    69    32    31    1
    70    66    64   ar
    71    86    83    1
    72    65    64   ar
    73   124   125    1
    74    31    30    1
    75    83    82    1
    76    83    84    1
    77    72    71    1
    78    64    63    1
    79    75    74    1
    80    75    76    1
    81   125   126    1
    82    24    23    2
    83    74    69   am
    84    84    85    2
    85    30    23   am
    86    76    77    2
    87    71    68    1
    88    71    73    1
    89    23    22    1
    90    63    60    1
    91    69    70    2
    92    69    68    1
    93    67    68    1
    94    67    61   am
    95    60    61    1
    96    60    59    1
    97    61    62    2
    98    29    27   am
    99    22    21    1
   100    22    25    1
   101    57    56    2
   102    26    27    1
   103    26    25    1
   104    27    28    2
   105    59    56   am
   106    56    55    1
   107    54    55    1
   108    55    58    1
   109   100    98    1
   110    99    98    1
   111    98    97    1
   112    97    94    1
   113   106   105    1
   114   107   105    1
   115   105   102    1
   116    94    93    1
   117    94    95    1
   118    96    95    2
   119   102   103    1
   120   102   101    1
   121   103   104    2
