@<TRIPOS>MOLECULE
tmp/1bwbB00.pdb
 132 126 0 0 0
SMALL
GASTEIGER

@<TRIPOS>ATOM
      1  N        -21.8330   20.2970   34.2740 N.3     8  ARG8       -0.1245
      2  CA       -21.2860   20.1120   32.9180 C.3     8  ARG8        0.1563
      3  C        -22.1140   20.7570   31.8210 C.2     8  ARG8        0.2260
      4  O        -23.3140   20.5300   31.7630 O.2     8  ARG8       -0.2867
      5  CB       -21.2570   18.6370   32.5610 C.3     8  ARG8        0.0307
      6  CG       -20.4060   17.8190   33.5030 C.3     8  ARG8        0.0489
      7  CD       -20.0860   16.5130   32.8070 C.3     8  ARG8        0.2205
      8  NE       -19.4490   15.5980   33.7340 N.pl3   8  ARG8       -0.0865
      9  CZ       -18.7320   14.5770   33.2690 C.cat   8  ARG8        0.5346
     10  NH1      -18.4320   14.4430   31.9630 N.pl3   8  ARG8        0.1354
     11  NH2      -18.3160   13.6770   34.1580 N.pl3   8  ARG8        0.1354
     12  N        -20.4930   17.5140   25.4220 N.3    23  LEU23      -0.1245
     13  CA       -19.9740   18.5940   26.2590 C.3    23  LEU23       0.1561
     14  C        -19.4360   19.6950   25.3710 C.2    23  LEU23       0.2260
     15  O        -18.6710   19.4560   24.4350 O.2    23  LEU23      -0.2867
     16  CB       -18.7150   18.1630   27.0100 C.3    23  LEU23       0.0270
     17  CG       -18.7380   17.4870   28.3840 C.3    23  LEU23       0.0019
     18  CD1      -17.3110   17.0330   28.6940 C.3    23  LEU23       0.0001
     19  CD2      -19.1950   18.4190   29.4860 C.3    23  LEU23       0.0001
     20  N        -16.6630   22.0490   25.0900 N.3    25  ASP25      -0.1239
     21  CA       -15.3490   21.8700   25.6920 C.3    25  ASP25       0.1674
     22  C        -14.3460   22.8580   25.1480 C.2    25  ASP25       0.2266
     23  O        -13.7650   22.6680   24.1000 O.2    25  ASP25      -0.2867
     24  CB       -14.9500   20.4340   25.3730 C.3    25  ASP25       0.1410
     25  CG       -13.6960   19.9490   26.0730 C.2    25  ASP25       0.3668
     26  OD1      -12.9410   20.7390   26.6490 O.co2  25  ASP25      -0.2456
     27  OD2      -13.4700   18.7510   26.0340 O.co2  25  ASP25      -0.2456
     28  N        -11.3550   23.4530   26.1050 N.3    27  GLY27      -0.1210
     29  CA        -9.9630   23.0250   26.0980 C.3    27  GLY27       0.1956
     30  C         -9.5630   22.1800   24.8960 C.2    27  GLY27       0.2612
     31  O         -8.4090   21.8810   24.7000 O.2    27  GLY27      -0.2717
     32  N        -10.5450   21.7380   24.1180 N.am   28  ALA28      -0.1965
     33  CA       -10.3550   20.7160   23.0930 C.3    28  ALA28       0.1728
     34  C        -10.1850   21.4050   21.7640 C.2    28  ALA28       0.2616
     35  O        -10.9970   22.2170   21.3630 O.2    28  ALA28      -0.2715
     36  CB       -11.6190   19.8040   23.0040 C.3    28  ALA28       0.0334
     37  N         -9.1320   21.0670   21.0480 N.am   29  ASP29      -0.1957
     38  CA        -9.0360   21.7420   19.7550 C.3    29  ASP29       0.1840
     39  C        -10.0040   21.2310   18.7160 C.2    29  ASP29       0.2622
     40  O        -10.4850   21.9570   17.8700 O.2    29  ASP29      -0.2715
     41  CB        -7.6370   21.6240   19.1450 C.3    29  ASP29       0.1450
     42  CG        -6.5290   22.2210   19.9770 C.2    29  ASP29       0.3671
     43  OD1       -6.7670   23.1490   20.7650 O.co2  29  ASP29      -0.2456
     44  OD2       -5.4040   21.7330   19.8090 O.co2  29  ASP29      -0.2456
     45  N        -10.2630   19.9480   18.8260 N.am   30  ASP30      -0.1971
     46  CA       -11.0430   19.1960   17.8520 C.3    30  ASP30       0.1709
     47  C        -12.2710   18.5810   18.5110 C.2    30  ASP30       0.2293
     48  O        -12.3080   18.4270   19.7230 O.2    30  ASP30      -0.2864
     49  CB       -10.2190   18.0180   17.3660 C.3    30  ASP30       0.1436
     50  CG        -8.9860   18.4540   16.6250 C.2    30  ASP30       0.3671
     51  OD1       -9.0930   19.2750   15.7150 O.co2  30  ASP30      -0.2456
     52  OD2       -7.9120   17.9640   16.9630 O.co2  30  ASP30      -0.2456
     53  N        -14.6140   15.4170   19.1210 N.3    32  VAL32      -0.1245
     54  CA       -14.4990   13.9680   19.0770 C.3    32  VAL32       0.1561
     55  C        -15.6820   13.2660   19.7340 C.2    32  VAL32       0.2260
     56  O        -16.1980   13.6100   20.7890 O.2    32  VAL32      -0.2867
     57  CB       -13.0800   13.4580   19.5070 C.3    32  VAL32       0.0252
     58  CG1      -12.2130   14.4560   20.2610 C.3    32  VAL32       0.0019
     59  CG2      -13.0740   12.0750   20.1530 C.3    32  VAL32       0.0019
     60  N         -6.5410    8.8860   12.2000 N.3    45  LYS45      -0.1231
     61  CA        -5.7810    9.9700   12.7860 C.3    45  LYS45       0.1693
     62  C         -5.4850    9.5390   14.1920 C.2    45  LYS45       0.2592
     63  O         -6.1090    8.6230   14.7060 O.2    45  LYS45      -0.2718
     64  CB        -6.6120   11.2620   12.7670 C.3    45  LYS45       0.0285
     65  CG        -5.7470   12.5210   12.8530 C.3    45  LYS45       0.0035
     66  CD        -6.5040   13.8520   12.9960 C.3    45  LYS45       0.0206
     67  CE        -5.6270   15.1060   12.7380 C.3    45  LYS45       0.1093
     68  NZ        -5.0250   15.1060   11.3790 N.3    45  LYS45      -0.1314
     69  N         -4.5180   10.2020   14.8040 N.am   46  MET46      -0.1965
     70  CA        -4.2140    9.9320   16.1990 C.3    46  MET46       0.1736
     71  C         -4.2930   11.2380   16.9270 C.2    46  MET46       0.2616
     72  O         -3.8260   12.2500   16.4290 O.2    46  MET46      -0.2715
     73  CB        -2.8100    9.3710   16.2170 C.3    46  MET46       0.0427
     74  CG        -2.3200    8.7940   17.5210 C.3    46  MET46       0.0599
     75  SD        -1.1460    7.5250   17.0450 S.3    46  MET46      -0.1393
     76  CE        -2.3670    6.3860   16.3770 C.3    46  MET46       0.0692
     77  N         -4.9440   11.2100   18.0720 N.am   47  ILE47      -0.1963
     78  CA        -5.0240   12.4450   18.8310 C.3    47  ILE47       0.1727
     79  C         -4.6050   12.1540   20.2410 C.2    47  ILE47       0.2617
     80  O         -4.5700   11.0020   20.6510 O.2    47  ILE47      -0.2715
     81  CB        -6.4290   13.0640   18.8370 C.3    47  ILE47       0.0290
     82  CG1       -7.5130   12.2070   19.4540 C.3    47  ILE47       0.0022
     83  CG2       -6.8480   13.5770   17.4590 C.3    47  ILE47       0.0023
     84  CD1       -8.6300   13.1240   19.9410 C.3    47  ILE47       0.0001
     85  N         -4.2720   13.2270   20.9440 N.am   48  GLY48      -0.1940
     86  CA        -3.7980   13.1370   22.3230 C.3    48  GLY48       0.2014
     87  C         -4.7130   13.8120   23.3240 C.2    48  GLY48       0.2639
     88  O         -5.3550   14.8210   23.0490 O.2    48  GLY48      -0.2714
     89  N         -4.7290   13.2130   24.4970 N.am   49  GLY49      -0.1939
     90  CA        -5.5120   13.7410   25.5950 C.3    49  GLY49       0.2014
     91  C         -4.7540   13.5210   26.8730 C.2    49  GLY49       0.2638
     92  O         -3.5740   13.2200   26.8990 O.2    49  GLY49      -0.2714
     93  N         -5.4830   13.6450   27.9720 N.am   50  ILE50      -0.1977
     94  CA        -4.9190   13.2080   29.2380 C.3    50  ILE50       0.1596
     95  C         -5.0590   11.7150   29.2950 C.2    50  ILE50       0.2287
     96  O         -6.1150   11.1620   29.0600 O.2    50  ILE50      -0.2864
     97  CB        -5.7120   13.8810   30.3510 C.3    50  ILE50       0.0276
     98  CG1       -4.8350   14.9830   30.9080 C.3    50  ILE50       0.0022
     99  CG2       -6.1660   12.9760   31.5150 C.3    50  ILE50       0.0022
    100  CD1       -5.5550   15.7580   32.0050 C.3    50  ILE50       0.0001
    101  N        -13.6440    7.7300   22.6910 N.3    80  THR80      -0.1204
    102  CA       -13.6540    8.6800   23.7930 C.3    80  THR80       0.1979
    103  C        -14.7120    8.2050   24.7630 C.2    80  THR80       0.2460
    104  O        -15.6750    7.5840   24.3530 O.2    80  THR80      -0.2732
    105  CB       -13.9700   10.0760   23.2080 C.3    80  THR80       0.1783
    106  OG1      -14.0310   11.0830   24.2420 O.3    80  THR80      -0.2211
    107  CG2      -15.2450   10.0580   22.3630 C.3    80  THR80       0.0376
    108  N        -14.5000    8.5070   26.0500 N.am   81  PRO81      -0.2717
    109  CA       -15.5440    8.2910   27.0660 C.3    81  PRO81       0.1535
    110  C        -16.7650    9.1770   26.9350 C.2    81  PRO81       0.2598
    111  O        -17.7950    8.8830   27.5130 O.2    81  PRO81      -0.2715
    112  CB       -14.8450    8.6580   28.3900 C.3    81  PRO81       0.0310
    113  CG       -13.3480    8.6870   28.1100 C.3    81  PRO81       0.0237
    114  CD       -13.2550    9.0330   26.6300 C.3    81  PRO81       0.0939
    115  N        -16.6320   10.2990   26.2320 N.am   82  PHE82      -0.1974
    116  CA       -17.7310   11.2420   26.1820 C.3    82  PHE82       0.1639
    117  C        -17.6110   12.0290   24.9060 C.2    82  PHE82       0.2290
    118  O        -16.5220   12.2480   24.4120 O.2    82  PHE82      -0.2864
    119  CB       -17.6800   12.1930   27.3960 C.3    82  PHE82       0.0560
    120  CG       -19.1050   12.5790   27.7400 C.ar   82  PHE82      -0.0200
    121  CD1      -19.8950   11.7120   28.5400 C.ar   82  PHE82      -0.0042
    122  CD2      -19.6800   13.7710   27.2230 C.ar   82  PHE82      -0.0042
    123  CE1      -21.2510   12.0330   28.8110 C.ar   82  PHE82      -0.0003
    124  CE2      -21.0380   14.0840   27.4900 C.ar   82  PHE82      -0.0003
    125  CZ       -21.8200   13.2140   28.2830 C.ar   82  PHE82      -0.0000
    126  N        -17.2780   15.1510   22.8330 N.3    84  VAL84      -0.1245
    127  CA       -16.8440   16.5040   23.1710 C.3    84  VAL84       0.1561
    128  C        -16.8580   17.3860   21.9170 C.2    84  VAL84       0.2260
    129  O        -16.3640   16.9860   20.8630 O.2    84  VAL84      -0.2867
    130  CB       -15.4550   16.5020   23.9070 C.3    84  VAL84       0.0252
    131  CG1      -15.4540   15.5920   25.1430 C.3    84  VAL84       0.0019
    132  CG2      -14.2900   16.0880   23.0580 C.3    84  VAL84       0.0019
@<TRIPOS>BOND
     1    68    67    1
     2    60    61    1
     3    67    66    1
     4    64    61    1
     5    64    65    1
     6    61    62    1
     7    65    66    1
     8    62    63    2
     9    62    69   am
    10    69    70    1
    11    51    50   ar
    12    70    73    1
    13    70    71    1
    14    73    74    1
    15    76    75    1
    16    72    71    2
    17    50    52   ar
    18    50    49    1
    19    71    77   am
    20    75    74    1
    21    49    46    1
    22    83    81    1
    23    46    47    1
    24    46    45    1
    25    40    39    2
    26    77    78    1
    27    47    48    2
    28    39    45   am
    29    39    38    1
    30    78    81    1
    31    78    79    1
    32    81    82    1
    33    54    53    1
    34    54    57    1
    35    54    55    1
    36    41    38    1
    37    41    42    1
    38    82    84    1
    39    57    59    1
    40    57    58    1
    41    55    56    2
    42    38    37    1
    43    44    42   ar
    44    42    43   ar
    45    79    80    2
    46    79    85   am
    47   129   128    2
    48    85    86    1
    49    37    34   am
    50    35    34    2
    51    34    33    1
    52   128   127    1
    53    86    87    1
    54   107   105    1
    55   101   102    1
    56   126   127    1
    57    36    33    1
    58    88    87    2
    59   132   130    1
    60    33    32    1
    61   127   130    1
    62   105   102    1
    63   105   106    1
    64    87    89   am
    65   102   103    1
    66   130   131    1
    67    23    22    2
    68    32    30   am
    69   104   103    2
    70   118   117    2
    71    15    14    2
    72    89    90    1
    73    31    30    2
    74   103   108   am
    75    30    29    1
    76   117   116    1
    77    20    21    1
    78    22    21    1
    79    14    13    1
    80    24    21    1
    81    24    25    1
    82    12    13    1
    83    90    91    1
    84    27    25   ar
    85   108   114    1
    86   108   109    1
    87    25    26   ar
    88    29    28    1
    89   116   115    1
    90   116   119    1
    91   115   110   am
    92    13    16    1
    93   114   113    1
    94    91    92    2
    95    91    93   am
    96   110   109    1
    97   110   111    2
    98    16    17    1
    99   109   112    1
   100   122   124   ar
   101   122   120   ar
   102   119   120    1
   103   124   125   ar
   104   120   121   ar
   105    93    94    1
   106   113   112    1
   107   125   123   ar
   108    17    18    1
   109    17    19    1
   110   121   123   ar
   111    96    95    2
   112    94    95    1
   113    94    97    1
   114    97    98    1
   115    97    99    1
   116    98   100    1
   117     4     3    2
   118     3     2    1
   119    10     9    1
   120     5     2    1
   121     5     6    1
   122     7     6    1
   123     7     8    1
   124     2     1    1
   125     9     8    2
   126     9    11    1
