@<TRIPOS>MOLECULE
tmp/1bwcA01.pdb
 92 83 0 0 0
SMALL
GASTEIGER

@<TRIPOS>ATOM
      1  N         23.1150   58.0430   20.2350 N.3    13  SER13      -0.1217
      2  CA        22.3170   59.0960   19.6070 C.3    13  SER13       0.1889
      3  C         20.8640   59.0710   20.0570 C.2    13  SER13       0.2288
      4  O         20.3380   60.0780   20.5240 O.2    13  SER13      -0.2866
      5  CB        22.3750   58.9620   18.0920 C.3    13  SER13       0.2089
      6  OG        23.6800   59.2390   17.6220 O.3    13  SER13      -0.2183
      7  N         20.4710   59.2580   24.3150 N.3    16  LEU16      -0.1231
      8  CA        20.6710   60.5940   24.8610 C.3    16  LEU16       0.1693
      9  C         19.5840   61.5630   24.4230 C.2    16  LEU16       0.2591
     10  O         19.1150   62.3640   25.2200 O.2    16  LEU16      -0.2718
     11  CB        22.0460   61.1390   24.4790 C.3    16  LEU16       0.0284
     12  CG        23.2230   60.3130   24.9980 C.3    16  LEU16       0.0019
     13  CD1       24.5290   60.9200   24.5170 C.3    16  LEU16       0.0001
     14  CD2       23.1980   60.2470   26.5150 C.3    16  LEU16       0.0001
     15  N         19.1660   61.4720   23.1670 N.am   17  ALA17      -0.1980
     16  CA        18.1040   62.3290   22.6580 C.3    17  ALA17       0.1597
     17  C         16.8280   62.1610   23.4800 C.2    17  ALA17       0.2287
     18  O         16.1370   63.1370   23.7780 O.2    17  ALA17      -0.2864
     19  CB        17.8400   62.0320   21.1940 C.3    17  ALA17       0.0319
     20  N         17.0660   63.1610   27.3520 N.3    20  ARG20      -0.1245
     21  CA        17.0710   64.6210   27.4980 C.3    20  ARG20       0.1563
     22  C         15.6780   65.2310   27.3920 C.2    20  ARG20       0.2260
     23  O         15.2750   66.0220   28.2440 O.2    20  ARG20      -0.2867
     24  CB        17.9770   65.2680   26.4500 C.3    20  ARG20       0.0307
     25  CG        19.4370   64.9710   26.6400 C.3    20  ARG20       0.0489
     26  CD        20.2870   66.1020   26.1360 C.3    20  ARG20       0.2205
     27  NE        20.8990   66.8210   27.2550 N.pl3  20  ARG20      -0.0865
     28  CZ        20.7130   68.1160   27.4970 C.cat  20  ARG20       0.5346
     29  NH1       20.0620   68.4980   28.5950 N.pl3  20  ARG20       0.1354
     30  NH2       21.1660   69.0260   26.6360 N.pl3  20  ARG20       0.1354
     31  N         27.6640   59.3440   23.8760 N.3    38  GLY38      -0.1225
     32  CA        27.6780   59.7490   22.4840 C.3    38  GLY38       0.1811
     33  C         27.6600   58.5930   21.5030 C.2    38  GLY38       0.2280
     34  O         27.3370   58.7820   20.3340 O.2    38  GLY38      -0.2866
     35  N         27.9520   57.6000   16.7600 N.3    41  CYS41      -0.1221
     36  CA        28.1650   58.8540   16.0520 C.3    41  CYS41       0.1808
     37  C         29.3710   59.6190   16.5930 C.2    41  CYS41       0.2601
     38  O         30.2470   59.9780   15.8140 O.2    41  CYS41      -0.2717
     39  CB        26.9170   59.7260   16.0580 C.3    41  CYS41       0.0970
     40  SG        26.8100   60.8290   14.6070 S.3    41  CYS41      -0.0800
     41  N         29.4810   59.7470   17.9150 N.am   42  VAL42      -0.1979
     42  CA        30.5970   60.4720   18.5330 C.3    42  VAL42       0.1595
     43  C         31.9310   59.7440   18.4750 C.2    42  VAL42       0.2287
     44  O         32.9570   60.3560   18.1960 O.2    42  VAL42      -0.2864
     45  CB        30.3020   60.8400   19.9980 C.3    42  VAL42       0.0276
     46  CG1       31.5190   61.4810   20.6370 C.3    42  VAL42       0.0022
     47  CG2       29.1150   61.8000   20.0640 C.3    42  VAL42       0.0022
     48  N         31.3000   61.5570   13.6280 N.3    47  VAL47      -0.1245
     49  CA        32.1710   62.6650   14.0120 C.3    47  VAL47       0.1561
     50  C         33.6490   62.4610   13.6510 C.2    47  VAL47       0.2260
     51  O         34.2220   63.3090   12.9800 O.2    47  VAL47      -0.2867
     52  CB        32.0180   63.0370   15.5170 C.3    47  VAL47       0.0252
     53  CG1       33.1280   63.9870   15.9530 C.3    47  VAL47       0.0019
     54  CG2       30.6600   63.6760   15.7690 C.3    47  VAL47       0.0019
     55  N         28.7700   65.7480   26.9700 N.3    97  TYR97      -0.1241
     56  CA        27.5760   64.9440   27.1700 C.3    97  TYR97       0.1605
     57  C         27.3420   64.5590   28.6240 C.2    97  TYR97       0.2264
     58  O         26.2430   64.7380   29.1330 O.2    97  TYR97      -0.2867
     59  CB        27.6150   63.6940   26.2950 C.3    97  TYR97       0.0534
     60  CG        27.3250   63.9990   24.8590 C.ar   97  TYR97      -0.0201
     61  CD1       26.2370   64.7940   24.5040 C.ar   97  TYR97      -0.0009
     62  CD2       28.1660   63.5520   23.8520 C.ar   97  TYR97      -0.0009
     63  CE1       26.0030   65.1420   23.1800 C.ar   97  TYR97       0.0417
     64  CE2       27.9420   63.8940   22.5280 C.ar   97  TYR97       0.0417
     65  CZ        26.8640   64.6900   22.1990 C.ar   97  TYR97       0.1957
     66  OH        26.6700   65.0700   20.8880 O.3    97  TYR97      -0.2866
     67  N         22.0450   58.7320   12.4070 N.3   322  THR322     -0.1218
     68  CA        22.0040   59.4360   13.6860 C.3   322  THR322      0.1862
     69  C         20.7440   60.2800   13.8550 C.2   322  THR322      0.2287
     70  O         20.0970   60.2200   14.8870 O.2   322  THR322     -0.2866
     71  CB        23.2760   60.3090   13.8840 C.3   322  THR322      0.1770
     72  OG1       24.3340   59.4870   14.3920 O.3   322  THR322     -0.2211
     73  CG2       23.0260   61.4790   14.8420 C.3   322  THR322      0.0375
     74  N         17.7640   60.0490   16.7350 N.3   326  ILE326     -0.1245
     75  CA        17.4270   61.2160   17.5460 C.3   326  ILE326      0.1561
     76  C         15.9380   61.5750   17.4650 C.2   326  ILE326      0.2260
     77  O         15.2600   61.6240   18.4870 O.2   326  ILE326     -0.2867
     78  CB        18.3140   62.4410   17.1700 C.3   326  ILE326      0.0252
     79  CG1       19.7490   62.2010   17.6460 C.3   326  ILE326      0.0019
     80  CG2       17.7690   63.7250   17.8010 C.3   326  ILE326      0.0019
     81  CD1       20.7570   63.2350   17.1800 C.3   326  ILE326      0.0001
     82  N         13.1650   61.3950   20.4540 N.3   330  ARG330     -0.1245
     83  CA        12.4760   62.5980   20.9000 C.3   330  ARG330      0.1563
     84  C         10.9610   62.4960   20.7540 C.2   330  ARG330      0.2260
     85  O         10.2190   62.8850   21.6550 O.2   330  ARG330     -0.2867
     86  CB        12.9820   63.8160   20.1310 C.3   330  ARG330      0.0307
     87  CG        14.3890   64.2210   20.4850 C.3   330  ARG330      0.0489
     88  CD        14.8430   65.3090   19.5440 C.3   330  ARG330      0.2205
     89  NE        15.8240   66.2010   20.1510 N.pl3 330  ARG330     -0.0865
     90  CZ        16.9150   66.6380   19.5370 C.cat 330  ARG330      0.5346
     91  NH1       16.8720   66.9390   18.2500 N.pl3 330  ARG330      0.1354
     92  NH2       18.0450   66.7740   20.2130 N.pl3 330  ARG330      0.1354
@<TRIPOS>BOND
     1    67    68    1
     2    51    50    2
     3    48    49    1
     4    50    49    1
     5    68    69    1
     6    68    71    1
     7    69    70    2
     8    71    72    1
     9    71    73    1
    10    49    52    1
    11    40    39    1
    12    52    54    1
    13    52    53    1
    14    38    37    2
    15    36    39    1
    16    36    37    1
    17    36    35    1
    18    37    41   am
    19    74    75    1
    20    78    75    1
    21    78    79    1
    22    78    80    1
    23    81    79    1
    24    76    75    1
    25    76    77    2
    26     6     5    1
    27    41    42    1
    28     5     2    1
    29    44    43    2
    30    91    90    1
    31    43    42    1
    32    42    45    1
    33    90    89    2
    34    90    92    1
    35    88    89    1
    36    88    87    1
    37     2     3    1
    38     2     1    1
    39    45    47    1
    40    45    46    1
    41     3     4    2
    42    86    87    1
    43    86    83    1
    44    34    33    2
    45    82    83    1
    46    84    83    1
    47    84    85    2
    48    66    65    1
    49    19    16    1
    50    33    32    1
    51    65    64   ar
    52    65    63   ar
    53    32    31    1
    54    64    62   ar
    55    16    15    1
    56    16    17    1
    57    15     9   am
    58    63    61   ar
    59    17    18    2
    60    62    60   ar
    61     7     8    1
    62     9     8    1
    63     9    10    2
    64    11     8    1
    65    11    12    1
    66    61    60   ar
    67    13    12    1
    68    60    59    1
    69    12    14    1
    70    26    25    1
    71    26    27    1
    72    59    56    1
    73    24    25    1
    74    24    21    1
    75    30    28    1
    76    55    56    1
    77    56    57    1
    78    27    28    2
    79    20    21    1
    80    22    21    1
    81    22    23    2
    82    28    29    1
    83    57    58    2
