@<TRIPOS>MOLECULE
tmp/1bwoB00.pdb
 183 173 0 0 0
SMALL
GASTEIGER

@<TRIPOS>ATOM
      1  N          3.9230   54.3660   59.9360 N.3    34  LEU34      -0.1231
      2  CA         5.1810   55.0780   59.7160 C.3    34  LEU34       0.1693
      3  C          5.2350   55.6020   58.2810 C.2    34  LEU34       0.2592
      4  O          5.3900   56.8010   58.0410 O.2    34  LEU34      -0.2718
      5  CB         6.3620   54.1330   59.9510 C.3    34  LEU34       0.0284
      6  CG         7.6460   54.6460   60.6120 C.3    34  LEU34       0.0019
      7  CD1        8.7490   53.6320   60.3760 C.3    34  LEU34       0.0001
      8  CD2        8.0360   56.0050   60.0500 C.3    34  LEU34       0.0001
      9  N          5.1050   54.6860   57.3300 N.am   35  HIS35      -0.1976
     10  CA         5.1390   55.0260   55.9210 C.3    35  HIS35       0.1656
     11  C          4.1540   56.1470   55.6060 C.2    35  HIS35       0.2291
     12  O          4.3950   56.9730   54.7260 O.2    35  HIS35      -0.2864
     13  CB         4.8040   53.7860   55.0940 C.3    35  HIS35       0.0771
     14  CG         4.7250   54.0510   53.6280 C.ar   35  HIS35       0.0820
     15  ND1        3.5280   54.1040   52.9490 N.ar   35  HIS35      -0.2267
     16  CD2        5.6890   54.3240   52.7190 C.ar   35  HIS35       0.1154
     17  CE1        3.7560   54.4020   51.6830 C.ar   35  HIS35       0.1986
     18  NE2        5.0590   54.5410   51.5150 N.ar   35  HIS35      -0.2212
     19  N          5.7270   59.6320   57.5730 N.3    38  ALA38      -0.1245
     20  CA         6.9650   60.1280   56.9810 C.3    38  ALA38       0.1562
     21  C          6.7640   60.5260   55.5310 C.2    38  ALA38       0.2260
     22  O          7.1080   59.7690   54.6310 O.2    38  ALA38      -0.2867
     23  CB         8.0420   59.0630   57.0870 C.3    38  ALA38       0.0290
     24  N         11.5370   61.1900   55.7850 N.3    44  ARG44      -0.1245
     25  CA        11.9050   59.8960   55.2340 C.3    44  ARG44       0.1563
     26  C         13.3730   59.6140   55.5360 C.2    44  ARG44       0.2260
     27  O         13.7360   58.5120   55.9520 O.2    44  ARG44      -0.2867
     28  CB        11.6660   59.8860   53.7220 C.3    44  ARG44       0.0307
     29  CG        10.2520   60.2890   53.3360 C.3    44  ARG44       0.0489
     30  CD         9.9110   59.8610   51.9220 C.3    44  ARG44       0.2205
     31  NE        10.8720   60.3810   50.9550 N.pl3  44  ARG44      -0.0865
     32  CZ        10.7200   61.5250   50.2990 C.cat  44  ARG44       0.5346
     33  NH1        9.6430   62.2710   50.5060 N.pl3  44  ARG44       0.1354
     34  NH2       11.6420   61.9260   49.4340 N.pl3  44  ARG44       0.1354
     35  N         13.8730   59.0250   59.2530 N.3    47  ALA47      -0.1231
     36  CA        13.2280   57.7940   59.6650 C.3    47  ALA47       0.1694
     37  C         14.1770   56.6670   59.2720 C.2    47  ALA47       0.2592
     38  O         14.3720   55.7090   60.0210 O.2    47  ALA47      -0.2718
     39  CB        11.8870   57.6410   58.9510 C.3    47  ALA47       0.0304
     40  N         14.7740   56.8140   58.0910 N.am   48  CYS48      -0.1970
     41  CA        15.7160   55.8440   57.5440 C.3    48  CYS48       0.1712
     42  C         16.9300   55.7180   58.4640 C.2    48  CYS48       0.2296
     43  O         17.3360   54.6150   58.8080 O.2    48  CYS48      -0.2864
     44  CB        16.1430   56.2910   56.1340 C.3    48  CYS48       0.0983
     45  SG        17.3170   55.2180   55.2390 S.3    48  CYS48      -0.0798
     46  N         15.8030   53.9350   61.7520 N.3    51  LEU51      -0.1231
     47  CA        15.6360   52.4980   61.5450 C.3    51  LEU51       0.1693
     48  C         16.9790   51.7840   61.3890 C.2    51  LEU51       0.2591
     49  O         17.1990   50.7240   61.9710 O.2    51  LEU51      -0.2718
     50  CB        14.7600   52.2520   60.3110 C.3    51  LEU51       0.0284
     51  CG        13.2860   52.6370   60.4890 C.3    51  LEU51       0.0019
     52  CD1       12.5210   52.4340   59.1880 C.3    51  LEU51       0.0001
     53  CD2       12.6820   51.7820   61.5980 C.3    51  LEU51       0.0001
     54  N         17.8760   52.3670   60.6000 N.am   52  LYS52      -0.1980
     55  CA        19.1890   51.7780   60.3920 C.3    52  LYS52       0.1596
     56  C         19.9060   51.6440   61.7360 C.2    52  LYS52       0.2287
     57  O         20.5040   50.6070   62.0190 O.2    52  LYS52      -0.2864
     58  CB        20.0130   52.6440   59.4390 C.3    52  LYS52       0.0298
     59  CG        21.1010   51.8830   58.7040 C.3    52  LYS52       0.0038
     60  CD        21.1730   52.2960   57.2450 C.3    52  LYS52       0.0206
     61  CE        22.2600   53.3280   57.0340 C.3    52  LYS52       0.1093
     62  NZ        22.3580   53.7560   55.6110 N.3    52  LYS52      -0.1314
     63  N         18.1890   48.8310   63.9300 N.3    55  ALA55      -0.1245
     64  CA        18.4440   47.4860   63.4140 C.3    55  ALA55       0.1562
     65  C         19.8570   47.0180   63.7420 C.2    55  ALA55       0.2260
     66  O         20.0710   45.8610   64.1150 O.2    55  ALA55      -0.2867
     67  CB        18.2320   47.4570   61.9080 C.3    55  ALA55       0.0290
     68  N         19.8600   39.7500   64.5450 N.3    61  LEU61      -0.1245
     69  CA        18.9340   40.2820   63.5610 C.3    61  LEU61       0.1561
     70  C         18.9100   39.3840   62.3370 C.2    61  LEU61       0.2260
     71  O         19.9590   39.0250   61.8040 O.2    61  LEU61      -0.2867
     72  CB        19.3470   41.6940   63.1310 C.3    61  LEU61       0.0270
     73  CG        18.6400   42.2330   61.8810 C.3    61  LEU61       0.0019
     74  CD1       17.2910   42.8190   62.2650 C.3    61  LEU61       0.0001
     75  CD2       19.5050   43.2810   61.2130 C.3    61  LEU61       0.0001
     76  N         18.1670   39.3980   58.7170 N.3    63  GLU63      -0.1245
     77  CA        18.0150   40.3350   57.6120 C.3    63  GLU63       0.1567
     78  C         16.9540   39.9710   56.5770 C.2    63  GLU63       0.2260
     79  O         16.2540   40.8480   56.0750 O.2    63  GLU63      -0.2867
     80  CB        19.3570   40.5040   56.9040 C.3    63  GLU63       0.0388
     81  CG        19.9990   41.8610   57.0680 C.3    63  GLU63       0.1160
     82  CD        21.4330   41.8640   56.5770 C.2    63  GLU63       0.3649
     83  OE1       22.2820   41.1800   57.1960 O.co2  63  GLU63      -0.2457
     84  OE2       21.7100   42.5450   55.5690 O.co2  63  GLU63      -0.2457
     85  N         13.7000   40.9140   58.0050 N.3    66  ALA66      -0.1231
     86  CA        13.6050   42.3720   58.0280 C.3    66  ALA66       0.1694
     87  C         13.2670   42.9240   56.6460 C.2    66  ALA66       0.2591
     88  O         12.3600   43.7450   56.5010 O.2    66  ALA66      -0.2718
     89  CB        14.9160   42.9790   58.5340 C.3    66  ALA66       0.0304
     90  N         13.9920   42.4720   55.6280 N.am   67  ARG67      -0.1980
     91  CA        13.7530   42.9300   54.2630 C.3    67  ARG67       0.1597
     92  C         12.3670   42.5240   53.7680 C.2    67  ARG67       0.2287
     93  O         11.8220   43.1170   52.8330 O.2    67  ARG67      -0.2864
     94  CB        14.8070   42.3400   53.3260 C.3    67  ARG67       0.0334
     95  CG        16.2130   42.4060   53.8690 C.3    67  ARG67       0.0492
     96  CD        17.1650   42.9960   52.8570 C.3    67  ARG67       0.2205
     97  NE        17.8530   41.9580   52.1020 N.pl3  67  ARG67      -0.0865
     98  CZ        18.5680   42.1850   51.0080 C.cat  67  ARG67       0.5346
     99  NH1       18.6940   43.4210   50.5350 N.pl3  67  ARG67       0.1354
    100  NH2       19.1510   41.1730   50.3820 N.pl3  67  ARG67       0.1354
    101  N          2.1820   44.8840   52.8930 N.3    74  GLY74      -0.1210
    102  CA         1.4410   45.6900   51.9440 C.3    74  GLY74       0.1956
    103  C          1.9920   47.0820   51.6880 C.2    74  GLY74       0.2612
    104  O          1.2620   47.9490   51.2110 O.2    74  GLY74      -0.2717
    105  N          3.2630   47.3100   52.0100 N.am   75  VAL75      -0.1965
    106  CA         3.8920   48.6060   51.7650 C.3    75  VAL75       0.1727
    107  C          4.7740   48.4190   50.5390 C.2    75  VAL75       0.2616
    108  O          5.8190   47.7740   50.6090 O.2    75  VAL75      -0.2715
    109  CB         4.7580   49.0530   52.9560 C.3    75  VAL75       0.0290
    110  CG1        5.2110   50.4820   52.7550 C.3    75  VAL75       0.0023
    111  CG2        3.9630   48.9300   54.2490 C.3    75  VAL75       0.0023
    112  N          4.3480   48.9840   49.4150 N.am   76  ASN76      -0.1958
    113  CA         5.0730   48.8320   48.1620 C.3    76  ASN76       0.1819
    114  C          6.1280   49.8860   47.8830 C.2    76  ASN76       0.2621
    115  O          5.8360   50.9140   47.2840 O.2    76  ASN76      -0.2715
    116  CB         4.0830   48.7980   46.9950 C.3    76  ASN76       0.1195
    117  CG         2.8620   47.9540   47.2930 C.2    76  ASN76       0.2630
    118  OD1        2.9470   46.7230   47.3690 O.2    76  ASN76      -0.2716
    119  ND2        1.7160   48.6090   47.4680 N.am   76  ASN76      -0.0877
    120  N          7.3570   49.6220   48.3060 N.am   77  LEU77      -0.1964
    121  CA         8.4450   50.5540   48.0750 C.3    77  LEU77       0.1713
    122  C          9.0900   50.2110   46.7350 C.2    77  LEU77       0.2458
    123  O          9.0620   49.0640   46.3070 O.2    77  LEU77      -0.2730
    124  CB         9.4680   50.4440   49.2090 C.3    77  LEU77       0.0310
    125  CG         8.9280   50.3830   50.6440 C.3    77  LEU77       0.0022
    126  CD1       10.0710   50.5710   51.6300 C.3    77  LEU77       0.0001
    127  CD2        7.8780   51.4570   50.8420 C.3    77  LEU77       0.0001
    128  N          9.6530   51.2080   46.0390 N.am   78  PRO78      -0.2716
    129  CA        10.2890   50.9300   44.7450 C.3    78  PRO78       0.1536
    130  C         11.6900   50.3330   44.8750 C.2    78  PRO78       0.2598
    131  O         12.4220   50.2300   43.8940 O.2    78  PRO78      -0.2715
    132  CB        10.3100   52.2920   44.0560 C.3    78  PRO78       0.0310
    133  CG        10.3580   53.2750   45.1770 C.3    78  PRO78       0.0237
    134  CD         9.6980   52.6400   46.3840 C.3    78  PRO78       0.0939
    135  N         12.0530   49.9250   46.0860 N.am   79  TYR79      -0.1974
    136  CA        13.3720   49.3550   46.3450 C.3    79  TYR79       0.1639
    137  C         13.2720   48.3420   47.4730 C.2    79  TYR79       0.2290
    138  O         12.2890   48.3210   48.2070 O.2    79  TYR79      -0.2864
    139  CB        14.3430   50.4650   46.7580 C.3    79  TYR79       0.0560
    140  CG        13.8210   51.3360   47.8920 C.ar   79  TYR79      -0.0198
    141  CD1       13.8290   50.8820   49.2140 C.ar   79  TYR79      -0.0009
    142  CD2       13.2840   52.5930   47.6390 C.ar   79  TYR79      -0.0009
    143  CE1       13.3100   51.6550   50.2470 C.ar   79  TYR79       0.0417
    144  CE2       12.7630   53.3760   48.6660 C.ar   79  TYR79       0.0417
    145  CZ        12.7760   52.8990   49.9670 C.ar   79  TYR79       0.1957
    146  OH        12.2310   53.6580   50.9830 O.3    79  TYR79      -0.2866
    147  N         14.6200   47.1990   50.9970 N.3    81  ILE81      -0.1231
    148  CA        15.3780   47.7830   52.1010 C.3    81  ILE81       0.1692
    149  C         16.5960   46.9240   52.4440 C.2    81  ILE81       0.2593
    150  O         16.6660   45.7490   52.0760 O.2    81  ILE81      -0.2718
    151  CB        14.4970   47.9630   53.3790 C.3    81  ILE81       0.0266
    152  CG1       14.0580   46.6050   53.9300 C.3    81  ILE81       0.0019
    153  CG2       13.2720   48.8110   53.0580 C.3    81  ILE81       0.0020
    154  CD1       13.3710   46.7000   55.2760 C.3    81  ILE81       0.0001
    155  N         17.5630   47.5150   53.1370 N.am   82  SER82      -0.1938
    156  CA        18.7670   46.7920   53.5330 C.3    82  SER82       0.2055
    157  C         19.5560   47.6090   54.5550 C.2    82  SER82       0.2642
    158  O         19.2960   48.7970   54.7440 O.2    82  SER82      -0.2714
    159  CB        19.6350   46.4890   52.3070 C.3    82  SER82       0.2130
    160  OG        20.2200   47.6720   51.8040 O.3    82  SER82      -0.2179
    161  N         20.5200   46.9650   55.2080 N.am   83  LEU83      -0.1977
    162  CA        21.3330   47.6240   56.2260 C.3    83  LEU83       0.1596
    163  C         22.2200   48.7280   55.6830 C.2    83  LEU83       0.2287
    164  O         22.6610   49.5870   56.4400 O.2    83  LEU83      -0.2864
    165  CB        22.2010   46.5980   56.9580 C.3    83  LEU83       0.0297
    166  CG        21.5350   45.9180   58.1550 C.3    83  LEU83       0.0022
    167  CD1       22.3660   44.7280   58.5820 C.3    83  LEU83       0.0001
    168  CD2       21.3860   46.9010   59.2960 C.3    83  LEU83       0.0001
    169  N         21.2360   50.6590   52.9730 N.3    85  ILE85      -0.1245
    170  CA        20.4010   51.4930   52.1200 C.3    85  ILE85       0.1561
    171  C         20.8860   52.9410   52.2140 C.2    85  ILE85       0.2260
    172  O         21.2380   53.4150   53.2960 O.2    85  ILE85      -0.2867
    173  CB        18.9220   51.4140   52.5610 C.3    85  ILE85       0.0252
    174  CG1       18.0570   52.2570   51.6240 C.3    85  ILE85       0.0019
    175  CG2       18.7740   51.8790   54.0200 C.3    85  ILE85       0.0019
    176  CD1       17.0760   51.4380   50.8220 C.3    85  ILE85       0.0001
    177  N         16.1640   57.8190   49.8090 N.3    90  VAL90      -0.1245
    178  CA        14.8460   57.3530   50.2370 C.3    90  VAL90       0.1561
    179  C         13.7460   58.3940   50.0040 C.2    90  VAL90       0.2260
    180  O         12.5650   57.9950   49.9030 O.2    90  VAL90      -0.2867
    181  CB        14.8840   56.9390   51.7390 C.3    90  VAL90       0.0252
    182  CG1       13.6070   57.3530   52.4530 C.3    90  VAL90       0.0019
    183  CG2       15.0960   55.4370   51.8450 C.3    90  VAL90       0.0019
@<TRIPOS>BOND
     1   131   130    2
     2   132   129    1
     3   132   133    1
     4   129   130    1
     5   129   128    1
     6   130   135   am
     7   133   134    1
     8   128   134    1
     9   128   122   am
    10   135   136    1
    11   123   122    2
    12   136   139    1
    13   136   137    1
    14   122   121    1
    15   139   140    1
    16   116   117    1
    17   116   113    1
    18   115   114    2
    19   117   118    2
    20   117   119   am
    21   137   138    2
    22   142   140   ar
    23   142   144   ar
    24   114   113    1
    25   114   120   am
    26   140   141   ar
    27   121   120    1
    28   121   124    1
    29   113   112    1
    30   144   145   ar
    31   124   125    1
    32   141   143   ar
    33   112   107   am
    34    34    32    1
    35   177   178    1
    36   180   179    2
    37   145   143   ar
    38   145   146    1
    39   179   178    1
    40   178   181    1
    41    32    33    1
    42    32    31    2
    43   100    98    1
    44    99    98    1
    45   107   108    2
    46   107   106    1
    47   125   127    1
    48   125   126    1
    49   176   174    1
    50    31    30    1
    51   147   148    1
    52    98    97    2
    53   104   103    2
    54    18    17   ar
    55    18    16   ar
    56   174   173    1
    57    17    15   ar
    58   103   102    1
    59   103   105   am
    60   181   183    1
    61   181   182    1
    62   106   105    1
    63   106   109    1
    64   160   159    1
    65    30    29    1
    66   102   101    1
    67   150   149    2
    68   148   149    1
    69   148   151    1
    70    97    96    1
    71   170   171    1
    72   170   173    1
    73   170   169    1
    74   171   172    2
    75   159   156    1
    76   149   155   am
    77   173   175    1
    78    16    14   ar
    79   110   109    1
    80    93    92    2
    81    96    95    1
    82    15    14   ar
    83   109   111    1
    84   153   151    1
    85   155   156    1
    86    94    95    1
    87    94    91    1
    88    29    28    1
    89   151   152    1
    90   156   157    1
    91    14    13    1
    92    28    25    1
    93    92    91    1
    94   152   154    1
    95    91    90    1
    96   157   158    2
    97   157   161   am
    98    22    21    2
    99    12    11    2
   100    13    10    1
   101   161   162    1
   102    25    26    1
   103    25    24    1
   104    45    44    1
   105    21    20    1
   106    26    27    2
   107    84    82   ar
   108    11    10    1
   109    62    61    1
   110    90    87   am
   111   163   162    1
   112   163   164    2
   113    10     9    1
   114    79    78    2
   115    44    41    1
   116   162   165    1
   117    88    87    2
   118    82    81    1
   119    82    83   ar
   120    78    77    1
   121    87    86    1
   122    80    81    1
   123    80    77    1
   124   165   166    1
   125    20    23    1
   126    20    19    1
   127    61    60    1
   128    60    59    1
   129     9     3   am
   130    41    40    1
   131    41    42    1
   132    77    76    1
   133    85    86    1
   134    86    89    1
   135     4     3    2
   136    40    37   am
   137   166   167    1
   138   166   168    1
   139     3     2    1
   140    42    43    2
   141    59    58    1
   142    39    36    1
   143    52    51    1
   144    35    36    1
   145    37    36    1
   146    37    38    2
   147    58    55    1
   148     2     1    1
   149     2     5    1
   150     5     6    1
   151     8     6    1
   152    50    51    1
   153    50    47    1
   154     7     6    1
   155    55    54    1
   156    55    56    1
   157    51    53    1
   158    54    48   am
   159    75    73    1
   160    48    47    1
   161    48    49    2
   162    47    46    1
   163    56    57    2
   164    71    70    2
   165    73    74    1
   166    73    72    1
   167    67    64    1
   168    70    69    1
   169    72    69    1
   170    64    65    1
   171    64    63    1
   172    69    68    1
   173    65    66    2
