@<TRIPOS>MOLECULE
tmp/1bwoB01.pdb
 156 143 0 0 0
SMALL
GASTEIGER

@<TRIPOS>ATOM
      1  N         10.7380   54.0430   66.8370 N.3     7  ASP7       -0.1239
      2  CA        11.0010   52.8390   67.6100 C.3     7  ASP7        0.1674
      3  C          9.7090   52.2370   68.1840 C.2     7  ASP7        0.2266
      4  O          9.5270   51.0190   68.1700 O.2     7  ASP7       -0.2867
      5  CB        11.9820   53.1660   68.7440 C.3     7  ASP7        0.1410
      6  CG        12.3810   51.9470   69.5450 C.2     7  ASP7        0.3668
      7  OD1       12.6920   50.9050   68.9390 O.co2   7  ASP7       -0.2456
      8  OD2       12.3890   52.0340   70.7850 O.co2   7  ASP7       -0.2456
      9  N          7.5740   50.4490   65.2690 N.3    10  VAL10      -0.1231
     10  CA         8.1000   49.1760   64.7800 C.3    10  VAL10       0.1692
     11  C          8.4610   48.1520   65.8650 C.2    10  VAL10       0.2591
     12  O          8.8060   47.0050   65.5580 O.2    10  VAL10      -0.2718
     13  CB         9.3420   49.4150   63.8830 C.3    10  VAL10       0.0266
     14  CG1        8.9570   50.2620   62.6830 C.3    10  VAL10       0.0020
     15  CG2       10.4440   50.1000   64.6840 C.3    10  VAL10       0.0020
     16  N          8.3740   48.5570   67.1280 N.am   11  ARG11      -0.1980
     17  CA         8.6960   47.6620   68.2370 C.3    11  ARG11       0.1597
     18  C          8.0840   46.2580   68.1060 C.2    11  ARG11       0.2287
     19  O          8.7580   45.2560   68.3310 O.2    11  ARG11      -0.2864
     20  CB         8.2610   48.2910   69.5660 C.3    11  ARG11       0.0334
     21  CG         8.8530   47.6120   70.7930 C.3    11  ARG11       0.0492
     22  CD         8.9360   48.5650   71.9680 C.3    11  ARG11       0.2205
     23  NE        10.3190   48.8410   72.3490 N.pl3  11  ARG11      -0.0865
     24  CZ        10.8060   50.0600   72.5590 C.cat  11  ARG11       0.5346
     25  NH1       10.0200   51.1220   72.4230 N.pl3  11  ARG11       0.1354
     26  NH2       12.0790   50.2170   72.9020 N.pl3  11  ARG11       0.1354
     27  N          7.7410   44.4170   65.7630 N.3    13  CYS13      -0.1221
     28  CA         8.3520   43.6110   64.7050 C.3    13  CYS13       0.1808
     29  C          9.6060   42.9170   65.2230 C.2    13  CYS13       0.2601
     30  O         10.2870   42.2240   64.4710 O.2    13  CYS13      -0.2717
     31  CB         8.7500   44.4790   63.5080 C.3    13  CYS13       0.0970
     32  SG         7.4250   45.4730   62.7540 S.3    13  CYS13      -0.0800
     33  N          9.9100   43.0970   66.5060 N.am   14  LEU14      -0.1979
     34  CA        11.1110   42.5180   67.0990 C.3    14  LEU14       0.1596
     35  C         11.2540   41.0020   67.0010 C.2    14  LEU14       0.2287
     36  O         12.2760   40.5150   66.5120 O.2    14  LEU14      -0.2864
     37  CB        11.2290   42.9410   68.5710 C.3    14  LEU14       0.0297
     38  CG        12.6020   43.3090   69.1600 C.3    14  LEU14       0.0022
     39  CD1       12.6770   42.7740   70.5780 C.3    14  LEU14       0.0001
     40  CD2       13.7460   42.7470   68.3240 C.3    14  LEU14       0.0001
     41  N         12.0590   39.8450   63.3420 N.3    17  VAL17      -0.1245
     42  CA        13.4000   40.1270   62.8530 C.3    17  VAL17       0.1561
     43  C         14.4810   39.3770   63.6200 C.2    17  VAL17       0.2260
     44  O         15.6570   39.4310   63.2680 O.2    17  VAL17      -0.2867
     45  CB        13.7010   41.6360   62.8750 C.3    17  VAL17       0.0252
     46  CG1       12.7350   42.3560   61.9630 C.3    17  VAL17       0.0019
     47  CG2       13.6150   42.1790   64.2870 C.3    17  VAL17       0.0019
     48  N          4.2300   49.6040   60.6760 N.3    31  VAL31      -0.1245
     49  CA         5.0100   49.8980   59.4810 C.3    31  VAL31       0.1561
     50  C          4.1840   50.7310   58.5000 C.2    31  VAL31       0.2260
     51  O          4.7170   51.6010   57.7960 O.2    31  VAL31      -0.2867
     52  CB         5.4720   48.5930   58.8020 C.3    31  VAL31       0.0252
     53  CG1        5.9170   48.8650   57.3780 C.3    31  VAL31       0.0019
     54  CG2        6.6090   47.9860   59.6020 C.3    31  VAL31       0.0019
     55  N          3.9230   54.3660   59.9360 N.3    34  LEU34      -0.1231
     56  CA         5.1810   55.0780   59.7160 C.3    34  LEU34       0.1693
     57  C          5.2350   55.6020   58.2810 C.2    34  LEU34       0.2592
     58  O          5.3900   56.8010   58.0410 O.2    34  LEU34      -0.2718
     59  CB         6.3620   54.1330   59.9510 C.3    34  LEU34       0.0284
     60  CG         7.6460   54.6460   60.6120 C.3    34  LEU34       0.0019
     61  CD1        8.7490   53.6320   60.3760 C.3    34  LEU34       0.0001
     62  CD2        8.0360   56.0050   60.0500 C.3    34  LEU34       0.0001
     63  N          5.1050   54.6860   57.3300 N.am   35  HIS35      -0.1976
     64  CA         5.1390   55.0260   55.9210 C.3    35  HIS35       0.1656
     65  C          4.1540   56.1470   55.6060 C.2    35  HIS35       0.2291
     66  O          4.3950   56.9730   54.7260 O.2    35  HIS35      -0.2864
     67  CB         4.8040   53.7860   55.0940 C.3    35  HIS35       0.0771
     68  CG         4.7250   54.0510   53.6280 C.ar   35  HIS35       0.0820
     69  ND1        3.5280   54.1040   52.9490 N.ar   35  HIS35      -0.2267
     70  CD2        5.6890   54.3240   52.7190 C.ar   35  HIS35       0.1154
     71  CE1        3.7560   54.4020   51.6830 C.ar   35  HIS35       0.1986
     72  NE2        5.0590   54.5410   51.5150 N.ar   35  HIS35      -0.2212
     73  N         15.8030   53.9350   61.7520 N.3    51  LEU51      -0.1245
     74  CA        15.6360   52.4980   61.5450 C.3    51  LEU51       0.1561
     75  C         16.9790   51.7840   61.3890 C.2    51  LEU51       0.2260
     76  O         17.1990   50.7240   61.9710 O.2    51  LEU51      -0.2867
     77  CB        14.7600   52.2520   60.3110 C.3    51  LEU51       0.0270
     78  CG        13.2860   52.6370   60.4890 C.3    51  LEU51       0.0019
     79  CD1       12.5210   52.4340   59.1880 C.3    51  LEU51       0.0001
     80  CD2       12.6820   51.7820   61.5980 C.3    51  LEU51       0.0001
     81  N         18.5650   51.5120   64.8030 N.3    54  ILE54      -0.1231
     82  CA        17.8830   50.5360   65.6450 C.3    54  ILE54       0.1692
     83  C         18.1610   49.0880   65.2320 C.2    54  ILE54       0.2591
     84  O         18.3360   48.2210   66.0820 O.2    54  ILE54      -0.2718
     85  CB        16.3580   50.7520   65.6260 C.3    54  ILE54       0.0266
     86  CG1       16.0000   52.0660   66.3310 C.3    54  ILE54       0.0019
     87  CG2       15.6640   49.5780   66.3050 C.3    54  ILE54       0.0020
     88  CD1       14.6060   52.5770   66.0000 C.3    54  ILE54       0.0001
     89  N         18.1890   48.8310   63.9300 N.am   55  ALA55      -0.1980
     90  CA        18.4440   47.4860   63.4140 C.3    55  ALA55       0.1597
     91  C         19.8570   47.0180   63.7420 C.2    55  ALA55       0.2287
     92  O         20.0710   45.8610   64.1150 O.2    55  ALA55      -0.2864
     93  CB        18.2320   47.4570   61.9080 C.3    55  ALA55       0.0319
     94  N         21.4760   47.5500   66.1750 N.3    57  GLY57      -0.1210
     95  CA        21.6150   47.2810   67.5950 C.3    57  GLY57       0.1956
     96  C         20.8880   46.0180   68.0280 C.2    57  GLY57       0.2611
     97  O         21.0380   45.5740   69.1660 O.2    57  GLY57      -0.2717
     98  N         20.1000   45.4410   67.1220 N.am   58  ILE58      -0.1979
     99  CA        19.3350   44.2220   67.3990 C.3    58  ILE58       0.1595
    100  C         20.2220   42.9770   67.3970 C.2    58  ILE58       0.2287
    101  O         20.9520   42.7120   66.4380 O.2    58  ILE58      -0.2864
    102  CB        18.2190   43.9970   66.3470 C.3    58  ILE58       0.0276
    103  CG1       17.1510   45.0820   66.4670 C.3    58  ILE58       0.0022
    104  CG2       17.5990   42.6090   66.5180 C.3    58  ILE58       0.0022
    105  CD1       16.3560   45.2530   65.1920 C.3    58  ILE58       0.0001
    106  N         19.8600   39.7500   64.5450 N.3    61  LEU61      -0.1245
    107  CA        18.9340   40.2820   63.5610 C.3    61  LEU61       0.1561
    108  C         18.9100   39.3840   62.3370 C.2    61  LEU61       0.2260
    109  O         19.9590   39.0250   61.8040 O.2    61  LEU61      -0.2867
    110  CB        19.3470   41.6940   63.1310 C.3    61  LEU61       0.0270
    111  CG        18.6400   42.2330   61.8810 C.3    61  LEU61       0.0019
    112  CD1       17.2910   42.8190   62.2650 C.3    61  LEU61       0.0001
    113  CD2       19.5050   43.2810   61.2130 C.3    61  LEU61       0.0001
    114  N         13.7000   40.9140   58.0050 N.3    66  ALA66      -0.1245
    115  CA        13.6050   42.3720   58.0280 C.3    66  ALA66       0.1562
    116  C         13.2670   42.9240   56.6460 C.2    66  ALA66       0.2260
    117  O         12.3600   43.7450   56.5010 O.2    66  ALA66      -0.2867
    118  CB        14.9160   42.9790   58.5340 C.3    66  ALA66       0.0290
    119  N          9.5120   42.5320   55.6450 N.3    69  ILE69      -0.1231
    120  CA         8.4200   43.2840   56.2540 C.3    69  ILE69       0.1678
    121  C          7.5980   44.1810   55.3230 C.2    69  ILE69       0.2434
    122  O          6.3810   44.0290   55.2370 O.2    69  ILE69      -0.2733
    123  CB         8.9290   44.1280   57.4660 C.3    69  ILE69       0.0265
    124  CG1        9.1730   43.2140   58.6750 C.3    69  ILE69       0.0019
    125  CG2        7.9030   45.1900   57.8420 C.3    69  ILE69       0.0020
    126  CD1       10.1860   43.7590   59.6710 C.3    69  ILE69       0.0001
    127  N          8.2460   45.1170   54.6040 N.am   70  PRO70      -0.2729
    128  CA         7.4330   45.9700   53.7310 C.3    70  PRO70       0.1401
    129  C          6.4560   45.2560   52.7960 C.2    70  PRO70       0.2269
    130  O          5.2460   45.4030   52.9490 O.2    70  PRO70      -0.2865
    131  CB         8.4690   46.8230   52.9850 C.3    70  PRO70       0.0296
    132  CG         9.6630   46.8350   53.8850 C.3    70  PRO70       0.0237
    133  CD         9.6770   45.4630   54.5320 C.3    70  PRO70       0.0939
    134  N          3.2630   47.3100   52.0100 N.3    75  VAL75      -0.1245
    135  CA         3.8920   48.6060   51.7650 C.3    75  VAL75       0.1561
    136  C          4.7740   48.4190   50.5390 C.2    75  VAL75       0.2260
    137  O          5.8190   47.7740   50.6090 O.2    75  VAL75      -0.2867
    138  CB         4.7580   49.0530   52.9560 C.3    75  VAL75       0.0252
    139  CG1        5.2110   50.4820   52.7550 C.3    75  VAL75       0.0019
    140  CG2        3.9630   48.9300   54.2490 C.3    75  VAL75       0.0019
    141  N          7.3570   49.6220   48.3060 N.3    77  LEU77      -0.1245
    142  CA         8.4450   50.5540   48.0750 C.3    77  LEU77       0.1561
    143  C          9.0900   50.2110   46.7350 C.2    77  LEU77       0.2260
    144  O          9.0620   49.0640   46.3070 O.2    77  LEU77      -0.2867
    145  CB         9.4680   50.4440   49.2090 C.3    77  LEU77       0.0270
    146  CG         8.9280   50.3830   50.6440 C.3    77  LEU77       0.0019
    147  CD1       10.0710   50.5710   51.6300 C.3    77  LEU77       0.0001
    148  CD2        7.8780   51.4570   50.8420 C.3    77  LEU77       0.0001
    149  N         14.6200   47.1990   50.9970 N.3    81  ILE81      -0.1245
    150  CA        15.3780   47.7830   52.1010 C.3    81  ILE81       0.1561
    151  C         16.5960   46.9240   52.4440 C.2    81  ILE81       0.2260
    152  O         16.6660   45.7490   52.0760 O.2    81  ILE81      -0.2867
    153  CB        14.4970   47.9630   53.3790 C.3    81  ILE81       0.0252
    154  CG1       14.0580   46.6050   53.9300 C.3    81  ILE81       0.0019
    155  CG2       13.2720   48.8110   53.0580 C.3    81  ILE81       0.0019
    156  CD1       13.3710   46.7000   55.2760 C.3    81  ILE81       0.0001
@<TRIPOS>BOND
     1   144   143    2
     2   143   142    1
     3   142   141    1
     4   142   145    1
     5   145   146    1
     6   136   137    2
     7   136   135    1
     8   146   148    1
     9   146   147    1
    10   149   150    1
    11    72    71   ar
    12    72    70   ar
    13    71    69   ar
    14   135   134    1
    15   135   138    1
    16   152   151    2
    17   150   151    1
    18   150   153    1
    19    70    68   ar
    20   139   138    1
    21   129   130    2
    22   129   128    1
    23    69    68   ar
    24   138   140    1
    25   131   128    1
    26   131   132    1
    27   155   153    1
    28   153   154    1
    29    68    67    1
    30   128   127    1
    31   132   133    1
    32   154   156    1
    33   133   127    1
    34   127   121   am
    35    66    65    2
    36    67    64    1
    37   122   121    2
    38   121   120    1
    39    65    64    1
    40   119   120    1
    41    64    63    1
    42   120   123    1
    43   117   116    2
    44   116   115    1
    45    63    57   am
    46    53    52    1
    47   123   125    1
    48   123   124    1
    49    51    50    2
    50   114   115    1
    51   115   118    1
    52    58    57    2
    53    57    56    1
    54    50    49    1
    55   124   126    1
    56    52    49    1
    57    52    54    1
    58    79    78    1
    59    49    48    1
    60    56    55    1
    61    56    59    1
    62    59    60    1
    63    62    60    1
    64    77    78    1
    65    77    74    1
    66    61    60    1
    67    78    80    1
    68   113   111    1
    69    75    74    1
    70    75    76    2
    71    74    73    1
    72   109   108    2
    73   111   112    1
    74   111   110    1
    75    93    90    1
    76    46    45    1
    77   108   107    1
    78    14    13    1
    79    32    31    1
    80    42    45    1
    81    42    41    1
    82    42    43    1
    83    45    47    1
    84   110   107    1
    85    44    43    2
    86    90    91    1
    87    90    89    1
    88    31    28    1
    89   107   106    1
    90    91    92    2
    91    13    15    1
    92    13    10    1
    93    89    83   am
    94    30    29    2
    95    28    29    1
    96    28    27    1
    97    10     9    1
    98    10    11    1
    99    81    82    1
   100   105   103    1
   101    29    33   am
   102    83    82    1
   103    83    84    2
   104    12    11    2
   105    85    82    1
   106    85    87    1
   107    85    86    1
   108    11    16   am
   109    88    86    1
   110    94    95    1
   111   102   103    1
   112   102   104    1
   113   102    99    1
   114   101   100    2
   115    33    34    1
   116    36    35    2
   117     1     2    1
   118    35    34    1
   119    34    37    1
   120    98    99    1
   121    98    96   am
   122    16    17    1
   123   100    99    1
   124    95    96    1
   125     2     3    1
   126     2     5    1
   127    96    97    2
   128    18    17    1
   129    18    19    2
   130     4     3    2
   131    17    20    1
   132    40    38    1
   133    37    38    1
   134     5     6    1
   135     7     6   ar
   136    38    39    1
   137     6     8   ar
   138    20    21    1
   139    21    22    1
   140    22    23    1
   141    23    24    2
   142    25    24    1
   143    24    26    1
