@<TRIPOS>MOLECULE
tmp/1bwvC00.pdb
 151 143 0 0 0
SMALL
GASTEIGER

@<TRIPOS>ATOM
      1  N        -11.0320   33.5530    2.5530 N.3   168  THR168     -0.1218
      2  CA       -11.8520   32.8610    1.5830 C.3   168  THR168      0.1862
      3  C        -12.2480   33.8960    0.5330 C.2   168  THR168      0.2287
      4  O        -12.6720   34.9960    0.9040 O.2   168  THR168     -0.2866
      5  CB       -13.1640   32.2950    2.1480 C.3   168  THR168      0.1770
      6  OG1      -13.0280   31.4940    3.3120 O.3   168  THR168     -0.2211
      7  CG2      -13.6860   31.3890    1.0780 C.3   168  THR168      0.0375
      8  N        -14.5310   35.8750   -1.9680 N.3   170  LYS170     -0.1245
      9  CA       -15.9500   36.2120   -1.9480 C.3   170  LYS170      0.1561
     10  C        -16.3030   37.0210   -3.1920 C.2   170  LYS170      0.2260
     11  O        -15.4370   37.8000   -3.6120 O.2   170  LYS170     -0.2867
     12  CB       -16.3190   37.0520   -0.7140 C.3   170  LYS170      0.0271
     13  CG       -16.1040   36.3520    0.6230 C.3   170  LYS170      0.0035
     14  CD       -16.8930   35.0530    0.7450 C.3   170  LYS170      0.0206
     15  CE       -16.2990   34.3410    1.9410 C.3   170  LYS170      0.1093
     16  NZ       -16.9290   33.0670    2.1900 N.3   170  LYS170     -0.1314
     17  N        -19.1070   33.8810   -2.6020 N.3   172  LYS172     -0.1245
     18  CA       -18.8670   32.4470   -2.4990 C.3   172  LYS172      0.1561
     19  C        -18.9230   31.7780   -3.8680 C.2   172  LYS172      0.2260
     20  O        -18.0180   31.0440   -4.2550 O.2   172  LYS172     -0.2867
     21  CB       -19.9010   31.7720   -1.6030 C.3   172  LYS172      0.0271
     22  CG       -19.9910   32.2670   -0.1730 C.3   172  LYS172      0.0035
     23  CD       -21.1620   31.5930    0.5370 C.3   172  LYS172      0.0206
     24  CE       -20.9010   30.1290    0.8450 C.3   172  LYS172      0.1093
     25  NZ       -19.8770   30.0330    1.8660 N.3   172  LYS172     -0.1314
     26  N        -13.7680   28.8350   -1.8360 N.3   197  ASP197     -0.1225
     27  CA       -14.7660   28.5830   -0.8120 C.3   197  ASP197      0.1805
     28  C        -15.1680   27.1360   -0.9710 C.2   197  ASP197      0.2597
     29  O        -15.0270   26.5400   -2.0270 O.2   197  ASP197     -0.2718
     30  CB       -16.0750   29.3050   -0.9980 C.3   197  ASP197      0.1424
     31  CG       -16.6700   30.0250    0.2040 C.2   197  ASP197      0.3668
     32  OD1      -16.9310   29.4510    1.1690 O.co2 197  ASP197     -0.2456
     33  OD2      -16.9520   31.2010    0.0690 O.co2 197  ASP197     -0.2456
     34  N        -15.5590   26.5120    0.1440 N.am  198  GLU198     -0.1979
     35  CA       -15.9130   25.1030    0.1500 C.3   198  GLU198      0.1602
     36  C        -16.8400   24.6070   -0.9450 C.2   198  GLU198      0.2287
     37  O        -16.8020   23.4400   -1.3130 O.2   198  GLU198     -0.2864
     38  CB       -16.5220   24.7390    1.5060 C.3   198  GLU198      0.0415
     39  CG       -17.9220   25.2260    1.8940 C.3   198  GLU198      0.1163
     40  CD       -18.1190   26.6980    2.1560 C.2   198  GLU198      0.3649
     41  OE1      -17.3110   27.2010    2.7140 O.co2 198  GLU198     -0.2457
     42  OE2      -19.1570   27.2230    1.7880 O.co2 198  GLU198     -0.2457
     43  N        -12.0090   21.3400    5.3810 N.3   287  HIS287     -0.1226
     44  CA       -13.0510   22.2870    5.7250 C.3   287  HIS287      0.1752
     45  C        -14.1410   21.3890    6.3000 C.2   287  HIS287      0.2595
     46  O        -14.6370   20.5000    5.6030 O.2   287  HIS287     -0.2718
     47  CB       -13.5470   23.0350    4.4670 C.3   287  HIS287      0.0759
     48  CG       -14.8290   23.8330    4.7040 C.ar  287  HIS287      0.0818
     49  ND1      -16.0430   23.3170    4.8240 N.ar  287  HIS287     -0.2268
     50  CD2      -14.9460   25.1940    4.8980 C.ar  287  HIS287      0.1154
     51  CE1      -16.8820   24.2830    5.0990 C.ar  287  HIS287      0.1986
     52  NE2      -16.2200   25.4120    5.1360 N.ar  287  HIS287     -0.2212
     53  N        -14.6170   21.6150    7.5220 N.am  288  ARG288     -0.1980
     54  CA       -15.6230   20.7550    8.1420 C.3   288  ARG288      0.1597
     55  C        -17.0680   21.0000    7.7130 C.2   288  ARG288      0.2287
     56  O        -17.9940   21.1510    8.5130 O.2   288  ARG288     -0.2864
     57  CB       -15.4820   20.8510    9.6910 C.3   288  ARG288      0.0334
     58  CG       -15.1110   22.1790   10.3440 C.3   288  ARG288      0.0492
     59  CD       -16.2270   22.9370   11.0420 C.3   288  ARG288      0.2205
     60  NE       -16.0950   22.8440   12.4860 N.pl3 288  ARG288     -0.0865
     61  CZ       -15.9020   23.9010   13.2860 C.cat 288  ARG288      0.5346
     62  NH1      -15.8160   25.1480   12.8340 N.pl3 288  ARG288      0.1354
     63  NH2      -15.7780   23.7000   14.5930 N.pl3 288  ARG288      0.1354
     64  N        -10.9590   23.3310   10.5280 N.3   320  HIS320     -0.1241
     65  CA       -11.5790   24.5150   11.0900 C.3   320  HIS320      0.1621
     66  C        -12.0400   24.1380   12.4890 C.2   320  HIS320      0.2264
     67  O        -12.7300   23.1350   12.6550 O.2   320  HIS320     -0.2867
     68  CB       -12.7790   24.9350   10.2910 C.3   320  HIS320      0.0745
     69  CG       -12.5040   25.7250    9.0260 C.ar  320  HIS320      0.0817
     70  ND1      -12.8200   26.9950    8.8340 N.ar  320  HIS320     -0.2268
     71  CD2      -11.9470   25.2510    7.8630 C.ar  320  HIS320      0.1154
     72  CE1      -12.4940   27.3140    7.6110 C.ar  320  HIS320      0.1986
     73  NE2      -11.9710   26.2620    7.0360 N.ar  320  HIS320     -0.2212
     74  N        -13.1630   26.7250   14.8460 N.3   322  GLY322     -0.1225
     75  CA       -13.9850   27.7860   15.3950 C.3   322  GLY322      0.1811
     76  C        -13.2010   29.0050   15.8390 C.2   322  GLY322      0.2280
     77  O        -11.9850   28.9790   16.0320 O.2   322  GLY322     -0.2866
     78  N        -18.9220   34.6440   13.4960 N.3   327  LYS327     -0.1231
     79  CA       -20.3340   34.4610   13.1760 C.3   327  LYS327      0.1693
     80  C        -20.8320   33.0360   13.4020 C.2   327  LYS327      0.2591
     81  O        -22.0450   32.7770   13.3690 O.2   327  LYS327     -0.2718
     82  CB       -20.5850   34.8820   11.7180 C.3   327  LYS327      0.0285
     83  CG       -19.9040   34.0280   10.6640 C.3   327  LYS327      0.0035
     84  CD       -20.0850   34.5340    9.2440 C.3   327  LYS327      0.0206
     85  CE       -19.4880   33.4980    8.3010 C.3   327  LYS327      0.1093
     86  NZ       -19.4760   33.9770    6.9330 N.3   327  LYS327     -0.1314
     87  N        -19.9250   32.0780   13.6010 N.am  328  LEU328     -0.1980
     88  CA       -20.2960   30.6960   13.8510 C.3   328  LEU328      0.1596
     89  C        -20.0740   30.3800   15.3290 C.2   328  LEU328      0.2287
     90  O        -19.2440   30.9930   16.0070 O.2   328  LEU328     -0.2864
     91  CB       -19.4570   29.7120   13.0200 C.3   328  LEU328      0.0297
     92  CG       -19.4870   29.5450   11.4830 C.3   328  LEU328      0.0022
     93  CD1      -20.9160   29.5030   10.9820 C.3   328  LEU328      0.0001
     94  CD2      -18.7310   30.6740   10.8260 C.3   328  LEU328      0.0001
     95  N         -7.9080   26.0210   12.2820 N.3   370  VAL370     -0.1245
     96  CA        -8.2160   27.1470   11.4270 C.3   370  VAL370      0.1561
     97  C         -9.3950   27.8620   12.0700 C.2   370  VAL370      0.2260
     98  O        -10.4330   27.2560   12.3810 O.2   370  VAL370     -0.2867
     99  CB        -8.5570   26.6180   10.0110 C.3   370  VAL370      0.0252
    100  CG1       -9.0670   27.7400    9.1200 C.3   370  VAL370      0.0019
    101  CG2       -7.3060   26.0440    9.3780 C.3   370  VAL370      0.0019
    102  N        -12.0900   30.7850   11.3710 N.3   372  SER372     -0.1202
    103  CA       -12.6500   31.4930   10.2340 C.3   372  SER372      0.2020
    104  C        -14.1190   31.7840   10.4600 C.2   372  SER372      0.2619
    105  O        -14.8250   31.0110   11.1210 O.2   372  SER372     -0.2717
    106  CB       -12.4580   30.6080    9.0010 C.3   372  SER372      0.2103
    107  OG       -13.0100   31.0030    7.7520 O.3   372  SER372     -0.2182
    108  N        -14.5890   32.8730    9.8610 N.am  373  GLY373     -0.1942
    109  CA       -15.9920   33.2080    9.9060 C.3   373  GLY373      0.2014
    110  C        -16.2870   34.4460   10.7190 C.2   373  GLY373      0.2639
    111  O        -16.1560   34.4700   11.9410 O.2   373  GLY373     -0.2714
    112  N        -16.6940   35.4900   10.0020 N.am  374  GLY374     -0.1939
    113  CA       -17.1430   36.7430   10.5870 C.3   374  GLY374      0.2014
    114  C        -16.1610   37.4490   11.4920 C.2   374  GLY374      0.2638
    115  O        -16.5870   38.1680   12.3920 O.2   374  GLY374     -0.2714
    116  N        -14.8580   37.2710   11.2970 N.am  375  ILE375     -0.1977
    117  CA       -13.9120   37.9540   12.1580 C.3   375  ILE375      0.1596
    118  C        -13.2660   39.1030   11.4060 C.2   375  ILE375      0.2287
    119  O        -13.2520   39.1440   10.1640 O.2   375  ILE375     -0.2864
    120  CB       -12.8070   36.9830   12.7030 C.3   375  ILE375      0.0276
    121  CG1      -12.0650   36.2100   11.6240 C.3   375  ILE375      0.0022
    122  CG2      -13.5160   36.0550   13.6760 C.3   375  ILE375      0.0022
    123  CD1      -10.8600   35.3830   12.1260 C.3   375  ILE375      0.0001
    124  N         -8.4970   33.2720    9.3200 N.3   394  GLN394     -0.1231
    125  CA        -8.9610   33.5910    7.9820 C.3   394  GLN394      0.1698
    126  C         -9.9920   34.7070    7.9280 C.2   394  GLN394      0.2592
    127  O        -11.0920   34.6070    8.4940 O.2   394  GLN394     -0.2718
    128  CB        -9.5540   32.3630    7.3330 C.3   394  GLN394      0.0381
    129  CG        -8.6020   31.1810    7.2600 C.3   394  GLN394      0.0905
    130  CD        -9.1680   30.0060    6.4910 C.2   394  GLN394      0.2608
    131  OE1       -8.4360   29.1490    5.9910 O.2   394  GLN394     -0.2717
    132  NE2      -10.4840   29.8580    6.3680 N.am  394  GLN394     -0.0878
    133  N         -9.6540   35.7470    7.1680 N.am  395  PHE395     -0.1962
    134  CA       -10.4870   36.9250    7.0130 C.3   395  PHE395      0.1771
    135  C        -10.9480   37.0530    5.5680 C.2   395  PHE395      0.2620
    136  O        -10.2180   37.5820    4.7310 O.2   395  PHE395     -0.2715
    137  CB        -9.7080   38.1840    7.3840 C.3   395  PHE395      0.0574
    138  CG        -9.1480   38.2120    8.7890 C.ar  395  PHE395     -0.0200
    139  CD1       -7.8730   37.6990    9.0370 C.ar  395  PHE395     -0.0042
    140  CD2       -9.9080   38.7590    9.8260 C.ar  395  PHE395     -0.0042
    141  CE1       -7.3620   37.7370   10.3360 C.ar  395  PHE395     -0.0003
    142  CE2       -9.3820   38.7900   11.1190 C.ar  395  PHE395     -0.0003
    143  CZ        -8.1120   38.2810   11.3770 C.ar  395  PHE395     -0.0000
    144  N        -12.1190   36.5210    5.2130 N.am  396  GLY396     -0.1940
    145  CA       -12.6600   36.6780    3.8670 C.3   396  GLY396      0.2014
    146  C        -13.2260   38.0790    3.6950 C.2   396  GLY396      0.2639
    147  O        -12.6110   38.9930    3.1360 O.2   396  GLY396     -0.2714
    148  N        -14.3880   38.2730    4.3160 N.am  397  GLY397     -0.1954
    149  CA       -15.0780   39.5530    4.3090 C.3   397  GLY397      0.1869
    150  C        -14.1930   40.6160    4.9500 C.2   397  GLY397      0.2309
    151  O        -14.0810   41.7300    4.4440 O.2   397  GLY397     -0.2863
@<TRIPOS>BOND
     1    20    19    2
     2    19    18    1
     3    11    10    2
     4    10     9    1
     5    17    18    1
     6    18    21    1
     7    29    28    2
     8     8     9    1
     9     9    12    1
    10    26    27    1
    11    21    22    1
    12    37    36    2
    13    30    27    1
    14    30    31    1
    15    28    27    1
    16    28    34   am
    17    36    35    1
    18    12    13    1
    19    22    23    1
    20    33    31   ar
    21    34    35    1
    22    35    38    1
    23    31    32   ar
    24     3     4    2
    25     3     2    1
    26    23    24    1
    27    13    14    1
    28    14    15    1
    29    24    25    1
    30     7     5    1
    31    38    39    1
    32     2     5    1
    33     2     1    1
    34    42    40   ar
    35    39    40    1
    36    15    16    1
    37     5     6    1
    38    40    41   ar
    39   147   146    2
    40   146   145    1
    41   146   148   am
    42   145   144    1
    43   149   148    1
    44   149   150    1
    45   151   150    2
    46    47    48    1
    47    47    44    1
    48    48    49   ar
    49    48    50   ar
    50   136   135    2
    51    49    51   ar
    52    50    52   ar
    53    51    52   ar
    54   144   135   am
    55    43    44    1
    56   135   134    1
    57    46    45    2
    58    44    45    1
    59   131   130    2
    60    45    53   am
    61   132   130   am
    62   130   129    1
    63    86    85    1
    64   134   133    1
    65   134   137    1
    66    73    72   ar
    67    73    71   ar
    68   133   126   am
    69   129   128    1
    70   128   125    1
    71   137   138    1
    72    53    54    1
    73    72    70   ar
    74    55    54    1
    75    55    56    2
    76   107   106    1
    77    71    69   ar
    78   126   125    1
    79   126   127    2
    80   125   124    1
    81    54    57    1
    82    85    84    1
    83   138   139   ar
    84   138   140   ar
    85    70    69   ar
    86   106   103    1
    87    69    68    1
    88   139   141   ar
    89   100    99    1
    90    84    83    1
    91   101    99    1
    92    57    58    1
    93   140   142   ar
    94   108   109    1
    95   108   104   am
    96   109   110    1
    97   112   113    1
    98   112   110   am
    99    99    96    1
   100   119   118    2
   101   103   104    1
   102   103   102    1
   103    68    65    1
   104   141   143   ar
   105    58    59    1
   106   104   105    2
   107    64    65    1
   108   113   114    1
   109    83    82    1
   110   110   111    2
   111    94    92    1
   112    93    92    1
   113    59    60    1
   114    65    66    1
   115   142   143   ar
   116   116   114   am
   117   116   117    1
   118   118   117    1
   119    96    97    1
   120    96    95    1
   121    92    91    1
   122   114   115    2
   123   121   123    1
   124   121   120    1
   125    82    79    1
   126    97    98    2
   127   117   120    1
   128    60    61    2
   129    66    67    2
   130   120   122    1
   131    62    61    1
   132    91    88    1
   133    79    80    1
   134    79    78    1
   135    61    63    1
   136    81    80    2
   137    80    87   am
   138    87    88    1
   139    88    89    1
   140    74    75    1
   141    89    90    2
   142    75    76    1
   143    76    77    2
