@<TRIPOS>MOLECULE
tmp/1bx4A00.pdb
 163 148 0 0 0
SMALL
GASTEIGER

@<TRIPOS>ATOM
      1  N         45.2420   12.4010   31.3520 N.3    11  ASN11      -0.1240
      2  CA        43.9040   12.3440   30.7900 C.3    11  ASN11       0.1653
      3  C         43.2940   13.7430   30.4780 C.2    11  ASN11       0.2266
      4  O         42.9550   14.4860   31.3920 O.2    11  ASN11      -0.2867
      5  CB        42.9790   11.6180   31.7900 C.3    11  ASN11       0.1155
      6  CG        43.4030   10.1740   32.0490 C.2    11  ASN11       0.2627
      7  OD1       43.9550    9.5110   31.1590 O.2    11  ASN11      -0.2716
      8  ND2       43.1730    9.6900   33.2680 N.am   11  ASN11      -0.0877
      9  N         40.4190   16.0440   29.8620 N.3    13  LEU13      -0.1245
     10  CA        38.9740   15.9330   30.1080 C.3    13  LEU13       0.1561
     11  C         38.2170   17.2810   30.0910 C.2    13  LEU13       0.2260
     12  O         38.7630   18.2950   30.5130 O.2    13  LEU13      -0.2867
     13  CB        38.7200   15.2860   31.4840 C.3    13  LEU13       0.0270
     14  CG        39.3560   13.9300   31.8270 C.3    13  LEU13       0.0019
     15  CD1       39.0580   13.5770   33.2820 C.3    13  LEU13       0.0001
     16  CD2       38.8290   12.8260   30.8880 C.3    13  LEU13       0.0001
     17  N         35.4330   19.3190   31.7610 N.3    15  ASP15      -0.1239
     18  CA        34.6460   19.3290   32.9990 C.3    15  ASP15       0.1674
     19  C         33.2260   19.8800   32.7870 C.2    15  ASP15       0.2266
     20  O         33.0640   20.9430   32.1520 O.2    15  ASP15      -0.2867
     21  CB        35.3410   20.1860   34.0680 C.3    15  ASP15       0.1410
     22  CG        36.6510   19.5890   34.5460 C.2    15  ASP15       0.3668
     23  OD1       36.7830   18.3370   34.6350 O.co2  15  ASP15      -0.2456
     24  OD2       37.5470   20.3800   34.8740 O.co2  15  ASP15      -0.2456
     25  N         35.9420   11.2800   44.3610 N.3    35  GLN35      -0.1231
     26  CA        36.4410   11.2650   42.9800 C.3    35  GLN35       0.1698
     27  C         36.4420    9.7960   42.5840 C.2    35  GLN35       0.2592
     28  O         37.1090    8.9840   43.2430 O.2    35  GLN35      -0.2718
     29  CB        37.8710   11.8110   42.8440 C.3    35  GLN35       0.0381
     30  CG        38.0410   13.2540   43.2640 C.3    35  GLN35       0.0905
     31  CD        39.4520   13.7360   43.0570 C.2    35  GLN35       0.2608
     32  OE1       40.3340   13.5560   43.9330 O.2    35  GLN35      -0.2717
     33  NE2       39.7010   14.2980   41.8820 N.am   35  GLN35      -0.0878
     34  N         35.6870    9.4510   41.5400 N.am   36  ILE36      -0.1966
     35  CA        35.5870    8.0620   41.0630 C.3    36  ILE36       0.1727
     36  C         35.5680    8.0060   39.5170 C.2    36  ILE36       0.2616
     37  O         35.4680    9.0380   38.8410 O.2    36  ILE36      -0.2715
     38  CB        34.2690    7.3500   41.5950 C.3    36  ILE36       0.0290
     39  CG1       33.0430    7.8810   40.8420 C.3    36  ILE36       0.0022
     40  CG2       34.1180    7.5400   43.1180 C.3    36  ILE36       0.0023
     41  CD1       31.6980    7.2450   41.2560 C.3    36  ILE36       0.0001
     42  N         35.7190    6.7960   38.9680 N.am   37  LEU37      -0.1977
     43  CA        35.6520    6.5720   37.5150 C.3    37  LEU37       0.1596
     44  C         34.1900    6.1950   37.1610 C.2    37  LEU37       0.2287
     45  O         33.5200    5.4940   37.9340 O.2    37  LEU37      -0.2864
     46  CB        36.5870    5.4170   37.0950 C.3    37  LEU37       0.0297
     47  CG        38.0880    5.6160   37.2900 C.3    37  LEU37       0.0022
     48  CD1       38.8090    4.3570   36.8350 C.3    37  LEU37       0.0001
     49  CD2       38.5580    6.8370   36.4850 C.3    37  LEU37       0.0001
     50  N         41.1890   18.0950   33.4320 N.3    61  GLY61      -0.1210
     51  CA        42.1270   16.9730   33.4680 C.3    61  GLY61       0.1956
     52  C         43.1970   17.3990   34.4810 C.2    61  GLY61       0.2613
     53  O         43.7930   18.4740   34.3140 O.2    61  GLY61      -0.2717
     54  N         43.4840   16.5740   35.4930 N.am   62  SER62      -0.1938
     55  CA        44.4490   16.9410   36.5340 C.3    62  SER62       0.2055
     56  C         45.8550   17.3570   36.0790 C.2    62  SER62       0.2643
     57  O         46.3300   18.4470   36.4250 O.2    62  SER62      -0.2714
     58  CB        44.5260   15.8620   37.6090 C.3    62  SER62       0.2130
     59  OG        45.3280   16.2980   38.7040 O.3    62  SER62      -0.2179
     60  N         46.5340   16.4940   35.3360 N.am   63  THR63      -0.1950
     61  CA        47.8800   16.8180   34.8520 C.3    63  THR63       0.1897
     62  C         47.8470   18.0560   33.9350 C.2    63  THR63       0.2313
     63  O         48.7230   18.9310   34.0330 O.2    63  THR63      -0.2863
     64  CB        48.5200   15.6260   34.1050 C.3    63  THR63       0.1794
     65  OG1       48.5980   14.4870   34.9830 O.3    63  THR63      -0.2208
     66  CG2       49.9500   15.9800   33.6600 C.3    63  THR63       0.0378
     67  N         45.7860   20.5950   34.0140 N.3    65  ASN65      -0.1240
     68  CA        45.6020   21.7690   34.8750 C.3    65  ASN65       0.1653
     69  C         46.9640   22.1920   35.4550 C.2    65  ASN65       0.2266
     70  O         47.3320   23.3720   35.3930 O.2    65  ASN65      -0.2867
     71  CB        44.6450   21.4510   36.0580 C.3    65  ASN65       0.1155
     72  CG        43.1740   21.3950   35.6540 C.2    65  ASN65       0.2627
     73  OD1       42.7910   21.8140   34.5640 O.2    65  ASN65      -0.2716
     74  ND2       42.3470   20.8670   36.5400 N.am   65  ASN65      -0.0877
     75  N         34.2440   14.8990   32.6600 N.3   120  CYS120     -0.1235
     76  CA        34.2170   14.6620   34.1120 C.3   120  CYS120      0.1677
     77  C         33.0950   15.4810   34.7440 C.2   120  CYS120      0.2270
     78  O         33.1080   16.7050   34.6460 O.2   120  CYS120     -0.2867
     79  CB        35.5540   15.0650   34.7780 C.3   120  CYS120      0.0956
     80  SG        35.6910   14.6220   36.5520 S.3   120  CYS120     -0.0801
     81  N         32.9790   14.1760   42.1050 N.3   131  LEU131     -0.1245
     82  CA        33.4570   14.0360   40.7250 C.3   131  LEU131      0.1561
     83  C         33.3410   12.6170   40.1500 C.2   131  LEU131      0.2260
     84  O         33.6260   11.6570   40.8570 O.2   131  LEU131     -0.2867
     85  CB        34.9200   14.5180   40.6200 C.3   131  LEU131      0.0270
     86  CG        35.2090   16.0100   40.3550 C.3   131  LEU131      0.0019
     87  CD1       34.5230   16.9060   41.3470 C.3   131  LEU131      0.0001
     88  CD2       36.7230   16.2330   40.3640 C.3   131  LEU131      0.0001
     89  N         34.5100   10.6550   36.6070 N.3   133  ALA133     -0.1245
     90  CA        35.2450   10.7200   35.3530 C.3   133  ALA133      0.1562
     91  C         34.9060    9.6600   34.3110 C.2   133  ALA133      0.2260
     92  O         35.1580    8.4660   34.5090 O.2   133  ALA133     -0.2867
     93  CB        36.7590   10.6980   35.6360 C.3   133  ALA133      0.0290
     94  N         36.2840    8.5720   31.3020 N.3   135  LEU135     -0.1245
     95  CA        37.4940    8.7220   30.4950 C.3   135  LEU135      0.1561
     96  C         37.3470    8.6430   28.9830 C.2   135  LEU135      0.2260
     97  O         37.9460    9.4560   28.2760 O.2   135  LEU135     -0.2867
     98  CB        38.6290    7.8200   31.0140 C.3   135  LEU135      0.0270
     99  CG        39.0520    7.9790   32.4940 C.3   135  LEU135      0.0019
    100  CD1       40.2330    7.0950   32.8140 C.3   135  LEU135      0.0001
    101  CD2       39.4040    9.4340   32.8140 C.3   135  LEU135      0.0001
    102  N         50.2140   12.5920   36.8390 N.3   165  ALA165     -0.1245
    103  CA        49.2800   12.3030   37.9250 C.3   165  ALA165      0.1562
    104  C         49.0410   10.7870   37.9990 C.2   165  ALA165      0.2260
    105  O         48.9920   10.1040   36.9620 O.2   165  ALA165     -0.2867
    106  CB        47.9370   13.0110   37.6970 C.3   165  ALA165      0.0290
    107  N         46.4760    9.3140   38.3670 N.3   167  PHE167     -0.1241
    108  CA        45.2860    8.9780   37.5750 C.3   167  PHE167      0.1605
    109  C         45.6410    8.2290   36.2810 C.2   167  PHE167      0.2264
    110  O         44.8980    7.3540   35.8530 O.2   167  PHE167     -0.2867
    111  CB        44.5270   10.2410   37.1660 C.3   167  PHE167      0.0534
    112  CG        43.7150   10.8990   38.2820 C.ar  167  PHE167     -0.0203
    113  CD1       43.8600   12.2690   38.5520 C.ar  167  PHE167     -0.0042
    114  CD2       42.7220   10.1870   38.9870 C.ar  167  PHE167     -0.0042
    115  CE1       43.0230   12.9180   39.4930 C.ar  167  PHE167     -0.0003
    116  CE2       41.8850   10.8340   39.9250 C.ar  167  PHE167     -0.0003
    117  CZ        42.0360   12.2050   40.1740 C.ar  167  PHE167     -0.0000
    118  N         45.6890    4.1360   35.4930 N.3   170  THR170     -0.1218
    119  CA        44.5380    3.2970   35.1210 C.3   170  THR170      0.1862
    120  C         44.4510    3.1530   33.5830 C.2   170  THR170      0.2287
    121  O         43.6850    2.3210   33.0790 O.2   170  THR170     -0.2866
    122  CB        43.1630    3.8880   35.6360 C.3   170  THR170      0.1770
    123  OG1       42.6790    4.9100   34.7370 O.3   170  THR170     -0.2211
    124  CG2       43.2920    4.4620   37.0610 C.3   170  THR170      0.0375
    125  N         41.2020    5.9060   45.3020 N.3   198  PHE198     -0.1241
    126  CA        41.0700    4.6900   44.4770 C.3   198  PHE198      0.1605
    127  C         42.3590    4.1990   43.8180 C.2   198  PHE198      0.2264
    128  O         42.4830    2.9940   43.5070 O.2   198  PHE198     -0.2867
    129  CB        39.8840    4.7480   43.4800 C.3   198  PHE198      0.0534
    130  CG        40.0790    5.6550   42.2700 C.ar  198  PHE198     -0.0203
    131  CD1       40.7840    5.2130   41.1460 C.ar  198  PHE198     -0.0042
    132  CD2       39.4670    6.9350   42.2170 C.ar  198  PHE198     -0.0042
    133  CE1       40.8760    6.0230   39.9900 C.ar  198  PHE198     -0.0003
    134  CE2       39.5510    7.7440   41.0700 C.ar  198  PHE198     -0.0003
    135  CZ        40.2520    7.2930   39.9600 C.ar  198  PHE198     -0.0000
    136  N         36.8250   25.9760   44.4940 N.3   291  ASP291     -0.1239
    137  CA        37.2780   24.6570   43.9950 C.3   291  ASP291      0.1674
    138  C         38.5670   24.1270   44.6370 C.2   291  ASP291      0.2266
    139  O         39.6820   24.4150   44.1560 O.2   291  ASP291     -0.2867
    140  CB        37.4890   24.8010   42.4780 C.3   291  ASP291      0.1410
    141  CG        37.8850   23.4910   41.7700 C.2   291  ASP291      0.3668
    142  OD1       37.8580   22.4010   42.3790 O.co2 291  ASP291     -0.2456
    143  OD2       38.1990   23.5720   40.5510 O.co2 291  ASP291     -0.2456
    144  N         39.6580   20.9740   44.6400 N.3   293  ASN293     -0.1225
    145  CA        40.3380   19.9520   43.8300 C.3   293  ASN293      0.1785
    146  C         41.3290   20.6430   42.8890 C.2   293  ASN293      0.2597
    147  O         42.4790   20.2490   42.8040 O.2   293  ASN293     -0.2718
    148  CB        39.3460   19.1160   43.0000 C.3   293  ASN293      0.1169
    149  CG        38.4780   18.2300   43.8530 C.2   293  ASN293      0.2627
    150  OD1       38.9710   17.3900   44.6070 O.2   293  ASN293     -0.2716
    151  ND2       37.1750   18.4110   43.7410 N.am  293  ASN293     -0.0877
    152  N         40.8600   21.6740   42.1880 N.am  294  GLY294     -0.1957
    153  CA        41.7050   22.4460   41.2840 C.3   294  GLY294      0.1869
    154  C         42.8140   23.1510   42.0620 C.2   294  GLY294      0.2309
    155  O         43.9110   23.3220   41.5350 O.2   294  GLY294     -0.2863
    156  N         45.7170   20.8360   42.1220 N.3   297  ASP297     -0.1239
    157  CA        46.4460   20.8080   40.8360 C.3   297  ASP297      0.1674
    158  C         47.3170   22.0810   40.6920 C.2   297  ASP297      0.2266
    159  O         48.4530   22.0180   40.1980 O.2   297  ASP297     -0.2867
    160  CB        45.4870   20.7100   39.6470 C.3   297  ASP297      0.1410
    161  CG        44.6460   19.4320   39.6730 C.2   297  ASP297      0.3668
    162  OD1       45.0370   18.4070   40.3080 O.co2 297  ASP297     -0.2456
    163  OD2       43.5890   19.4450   39.0140 O.co2 297  ASP297     -0.2456
@<TRIPOS>BOND
     1    97    96    2
     2    96    95    1
     3     9    10    1
     4    11    10    1
     5    11    12    2
     6    10    13    1
     7     3     2    1
     8     3     4    2
     9    95    98    1
    10    95    94    1
    11     2     1    1
    12     2     5    1
    13    16    14    1
    14    98    99    1
    15     7     6    2
    16    13    14    1
    17    17    18    1
    18     5     6    1
    19    14    15    1
    20     6     8   am
    21    20    19    2
    22    99   101    1
    23    99   100    1
    24    75    76    1
    25    19    18    1
    26    18    21    1
    27   121   120    2
    28    50    51    1
    29    51    52    1
    30   120   119    1
    31    66    64    1
    32    62    63    2
    33    62    61    1
    34    67    68    1
    35    21    22    1
    36    64    61    1
    37    64    65    1
    38    76    77    1
    39    76    79    1
    40    91    92    2
    41    91    90    1
    42    53    52    2
    43    52    54   am
    44    22    23   ar
    45    22    24   ar
    46    73    72    2
    47    78    77    2
    48   123   122    1
    49    79    80    1
    50    61    60    1
    51    68    69    1
    52    68    71    1
    53   119   118    1
    54   119   122    1
    55    60    56   am
    56    90    93    1
    57    90    89    1
    58    70    69    2
    59    54    55    1
    60   122   124    1
    61    72    71    1
    62    72    74   am
    63   110   109    2
    64    56    57    2
    65    56    55    1
    66   109   108    1
    67    49    47    1
    68    55    58    1
    69    48    47    1
    70   102   103    1
    71   105   104    2
    72    46    47    1
    73    46    43    1
    74    44    43    1
    75    44    45    2
    76   111   108    1
    77   111   112    1
    78    43    42    1
    79   108   107    1
    80    58    59    1
    81   106   103    1
    82   103   104    1
    83   112   113   ar
    84   112   114   ar
    85   113   115   ar
    86    37    36    2
    87    42    36   am
    88   114   116   ar
    89   163   161   ar
    90   115   117   ar
    91    36    35    1
    92   160   161    1
    93   160   157    1
    94   161   162   ar
    95   116   117   ar
    96   135   133   ar
    97   135   134   ar
    98   133   131   ar
    99    83    82    1
   100    83    84    2
   101   159   158    2
   102    86    88    1
   103    86    85    1
   104    86    87    1
   105   143   141   ar
   106    85    82    1
   107   158   157    1
   108    82    81    1
   109   157   156    1
   110    39    41    1
   111    39    38    1
   112    35    34    1
   113    35    38    1
   114   134   132   ar
   115   131   130   ar
   116   153   154    1
   117   153   152    1
   118   155   154    2
   119    34    27   am
   120    38    40    1
   121   141   142   ar
   122   141   140    1
   123    33    31   am
   124   152   146   am
   125   132   130   ar
   126   130   129    1
   127   140   137    1
   128    27    26    1
   129    27    28    2
   130   147   146    2
   131    29    26    1
   132    29    30    1
   133   146   145    1
   134    26    25    1
   135   148   145    1
   136   148   149    1
   137    31    30    1
   138    31    32    2
   139   129   126    1
   140   128   127    2
   141   151   149   am
   142   127   126    1
   143   145   144    1
   144   149   150    2
   145   137   136    1
   146   137   138    1
   147   139   138    2
   148   126   125    1
