@<TRIPOS>MOLECULE
tmp/1bx9A00.pdb
 179 174 0 0 0
SMALL
GASTEIGER

@<TRIPOS>ATOM
      1  N          9.5350   26.0530   21.5860 N.3     7  HIS7       -0.1241
      2  CA         8.8600   26.9470   20.6810 C.3     7  HIS7        0.1621
      3  C          9.1860   26.4720   19.2620 C.2     7  HIS7        0.2264
      4  O         10.3490   26.4030   18.8690 O.2     7  HIS7       -0.2867
      5  CB         9.3770   28.3620   20.9160 C.3     7  HIS7        0.0745
      6  CG         8.6040   29.4130   20.1930 C.ar    7  HIS7        0.0817
      7  ND1        7.8620   30.3700   20.8500 N.ar    7  HIS7       -0.2268
      8  CD2        8.4620   29.6640   18.8700 C.ar    7  HIS7        0.1154
      9  CE1        7.2980   31.1690   19.9600 C.ar    7  HIS7        0.1986
     10  NE2        7.6460   30.7620   18.7520 N.ar    7  HIS7       -0.2212
     11  N          9.3930   27.7550   16.4320 N.3     9  ALA9       -0.1231
     12  CA        10.1450   28.6130   15.5280 C.3     9  ALA9        0.1694
     13  C         11.6240   28.6000   15.9310 C.2     9  ALA9        0.2593
     14  O         12.4840   29.0780   15.1870 O.2     9  ALA9       -0.2718
     15  CB         9.6040   30.0330   15.5810 C.3     9  ALA9        0.0304
     16  N         11.9080   28.0440   17.1080 N.am   10  SER10      -0.1938
     17  CA        13.2440   27.9800   17.6410 C.3    10  SER10       0.2055
     18  C         14.0760   26.9750   16.8530 C.2    10  SER10       0.2643
     19  O         13.6440   25.8580   16.5860 O.2    10  SER10      -0.2714
     20  CB        13.1830   27.5930   19.1190 C.3    10  SER10       0.2130
     21  OG        14.4630   27.2560   19.6200 O.3    10  SER10      -0.2179
     22  N         15.2850   27.4000   16.5070 N.am   11  ILE11      -0.1963
     23  CA        16.2350   26.6140   15.7660 C.3    11  ILE11       0.1727
     24  C         16.6480   25.4130   16.6180 C.2    11  ILE11       0.2616
     25  O         16.7340   24.2900   16.1200 O.2    11  ILE11      -0.2715
     26  CB        17.4890   27.4760   15.4180 C.3    11  ILE11       0.0290
     27  CG1       17.1450   28.4750   14.3040 C.3    11  ILE11       0.0022
     28  CG2       18.6730   26.5980   15.0360 C.3    11  ILE11       0.0023
     29  CD1       18.2880   29.4070   13.9100 C.3    11  ILE11       0.0001
     30  N         16.8540   25.6530   17.9110 N.am   12  ALA12      -0.1977
     31  CA        17.2720   24.6190   18.8390 C.3    12  ALA12       0.1597
     32  C         16.1820   23.5620   19.0070 C.2    12  ALA12       0.2287
     33  O         16.5010   22.3920   19.1870 O.2    12  ALA12      -0.2864
     34  CB        17.6360   25.2330   20.1910 C.3    12  ALA12       0.0319
     35  N         15.7150   21.4190   15.8080 N.3    15  ARG15      -0.1245
     36  CA        16.7990   20.4550   15.7390 C.3    15  ARG15       0.1563
     37  C         16.3680   19.1460   16.3970 C.2    15  ARG15       0.2260
     38  O         16.7580   18.0730   15.9430 O.2    15  ARG15      -0.2867
     39  CB        18.0290   21.0360   16.4410 C.3    15  ARG15       0.0307
     40  CG        19.2270   20.1220   16.4800 C.3    15  ARG15       0.0489
     41  CD        20.5190   20.9100   16.3550 C.3    15  ARG15       0.2205
     42  NE        20.6680   21.8810   17.4250 N.pl3  15  ARG15      -0.0865
     43  CZ        21.0440   23.1410   17.2480 C.cat  15  ARG15       0.5346
     44  NH1       21.3120   23.5980   16.0320 N.pl3  15  ARG15       0.1354
     45  NH2       21.1580   23.9400   18.2980 N.pl3  15  ARG15       0.1354
     46  N          7.5440   32.0560   25.2030 N.3    34  LEU34      -0.1231
     47  CA         8.7570   32.7810   25.5070 C.3    34  LEU34       0.1693
     48  C          8.4340   34.2480   25.7170 C.2    34  LEU34       0.2591
     49  O          9.1110   34.9400   26.4780 O.2    34  LEU34      -0.2718
     50  CB         9.7510   32.6190   24.3540 C.3    34  LEU34       0.0284
     51  CG        10.0460   31.1740   23.9470 C.3    34  LEU34       0.0019
     52  CD1       11.2100   31.1330   22.9830 C.3    34  LEU34       0.0001
     53  CD2       10.3600   30.3510   25.1860 C.3    34  LEU34       0.0001
     54  N          7.3720   34.7020   25.0590 N.am   35  LYS35      -0.1980
     55  CA         6.9420   36.0800   25.1180 C.3    35  LYS35       0.1596
     56  C          6.3190   36.3930   26.4820 C.2    35  LYS35       0.2287
     57  O          6.4540   37.5110   26.9820 O.2    35  LYS35      -0.2864
     58  CB         5.9600   36.3380   23.9660 C.3    35  LYS35       0.0298
     59  CG         6.5610   35.9960   22.5940 C.3    35  LYS35       0.0038
     60  CD         5.6610   36.3710   21.4180 C.3    35  LYS35       0.0206
     61  CE         6.3690   36.1090   20.0830 C.3    35  LYS35       0.1093
     62  NZ         5.5610   36.5080   18.8890 N.3    35  LYS35      -0.1314
     63  N          9.3470   30.3970   30.3270 N.3    39  HIS39      -0.1226
     64  CA        10.5820   29.6540   30.4910 C.3    39  HIS39       0.1752
     65  C         11.4680   30.1770   31.6250 C.2    39  HIS39       0.2595
     66  O         12.4010   29.4910   32.0370 O.2    39  HIS39      -0.2718
     67  CB        11.3550   29.7020   29.1820 C.3    39  HIS39       0.0759
     68  CG        11.6230   31.0890   28.7070 C.ar   39  HIS39       0.0818
     69  ND1       10.6140   31.9830   28.4240 N.ar   39  HIS39      -0.2268
     70  CD2       12.7840   31.7540   28.5090 C.ar   39  HIS39       0.1154
     71  CE1       11.1420   33.1420   28.0770 C.ar   39  HIS39       0.1986
     72  NE2       12.4580   33.0300   28.1200 N.ar   39  HIS39      -0.2212
     73  N         11.2000   31.3770   32.1290 N.am   40  LYS40      -0.1980
     74  CA        12.0340   31.9210   33.1720 C.3    40  LYS40       0.1596
     75  C         11.3320   31.8430   34.5210 C.2    40  LYS40       0.2287
     76  O         11.6710   32.5810   35.4500 O.2    40  LYS40      -0.2864
     77  CB        12.4030   33.3610   32.8390 C.3    40  LYS40       0.0298
     78  CG        13.2060   33.5270   31.5550 C.3    40  LYS40       0.0038
     79  CD        14.5380   32.7950   31.6140 C.3    40  LYS40       0.0206
     80  CE        15.3990   33.0850   30.3810 C.3    40  LYS40       0.1093
     81  NZ        16.7100   32.3520   30.3850 N.3    40  LYS40      -0.1314
     82  N         16.6940   28.1570   32.0340 N.3    51  GLY51      -0.1210
     83  CA        15.5980   28.8440   31.3630 C.3    51  GLY51       0.1956
     84  C         15.6570   29.0280   29.8590 C.2    51  GLY51       0.2612
     85  O         15.5960   30.1540   29.3540 O.2    51  GLY51      -0.2717
     86  N         15.7470   27.9220   29.1320 N.am   52  GLN52      -0.1965
     87  CA        15.7990   27.9750   27.6940 C.3    52  GLN52       0.1733
     88  C         15.0790   26.7670   27.1370 C.2    52  GLN52       0.2616
     89  O         14.9010   25.7580   27.8160 O.2    52  GLN52      -0.2715
     90  CB        17.2300   27.9240   27.1830 C.3    52  GLN52       0.0408
     91  CG        18.1170   29.0380   27.5920 C.3    52  GLN52       0.0908
     92  CD        19.5130   28.7840   27.1150 C.2    52  GLN52       0.2608
     93  OE1       20.0200   27.6670   27.2220 O.2    52  GLN52      -0.2717
     94  NE2       20.1410   29.8030   26.5570 N.am   52  GLN52      -0.0878
     95  N         14.7350   26.8670   25.8630 N.am   53  VAL53      -0.1964
     96  CA        14.0790   25.8110   25.1650 C.3    53  VAL53       0.1712
     97  C         15.0930   25.2960   24.1350 C.2    53  VAL53       0.2458
     98  O         15.8940   26.0640   23.6140 O.2    53  VAL53      -0.2730
     99  CB        12.7670   26.3260   24.5080 C.3    53  VAL53       0.0289
    100  CG1       11.8820   26.9460   25.5730 C.3    53  VAL53       0.0023
    101  CG2       13.0630   27.3570   23.4310 C.3    53  VAL53       0.0023
    102  N         15.0340   24.0020   23.7860 N.am   54  PRO54      -0.2727
    103  CA        14.0890   23.0010   24.2780 C.3    54  PRO54       0.1402
    104  C         14.4280   22.2390   25.5460 C.2    54  PRO54       0.2269
    105  O         15.5710   22.1980   26.0070 O.2    54  PRO54      -0.2865
    106  CB        14.0170   22.0310   23.1100 C.3    54  PRO54       0.0296
    107  CG        15.4260   21.9800   22.6650 C.3    54  PRO54       0.0237
    108  CD        15.8520   23.4440   22.6940 C.3    54  PRO54       0.0939
    109  N         19.0590   20.9750   26.4300 N.3    65  GLU65      -0.1231
    110  CA        20.2440   21.1950   25.6090 C.3    65  GLU65       0.1699
    111  C         19.9900   20.3010   24.3760 C.2    65  GLU65       0.2593
    112  O         20.0950   19.0800   24.4600 O.2    65  GLU65      -0.2718
    113  CB        21.5080   20.7850   26.3990 C.3    65  GLU65       0.0402
    114  CG        22.7420   21.6590   26.2030 C.3    65  GLU65       0.1161
    115  CD        22.6780   23.0250   26.8580 C.2    65  GLU65       0.3649
    116  OE1       22.3180   23.1290   28.0470 O.co2  65  GLU65      -0.2457
    117  OE2       23.0310   24.0100   26.1880 O.co2  65  GLU65      -0.2457
    118  N         19.6430   20.9240   23.2460 N.am   66  SER66      -0.1938
    119  CA        19.2590   20.2280   22.0090 C.3    66  SER66       0.2055
    120  C         20.1980   19.1390   21.5070 C.2    66  SER66       0.2642
    121  O         19.7100   18.1170   21.0400 O.2    66  SER66      -0.2714
    122  CB        18.9920   21.2270   20.8790 C.3    66  SER66       0.2130
    123  OG        20.1230   22.0200   20.5880 O.3    66  SER66      -0.2179
    124  N         21.5140   19.3260   21.5600 N.am   67  ARG67      -0.1977
    125  CA        22.4100   18.3070   21.0440 C.3    67  ARG67       0.1597
    126  C         22.5600   17.1420   22.0270 C.2    67  ARG67       0.2287
    127  O         22.9450   16.0390   21.6300 O.2    67  ARG67      -0.2864
    128  CB        23.7590   18.9180   20.7180 C.3    67  ARG67       0.0334
    129  CG        23.6770   20.0710   19.7470 C.3    67  ARG67       0.0492
    130  CD        25.0220   20.7530   19.6400 C.3    67  ARG67       0.2205
    131  NE        24.9590   21.9930   18.8760 N.pl3  67  ARG67      -0.0865
    132  CZ        24.3360   23.0960   19.2790 C.cat  67  ARG67       0.5346
    133  NH1       23.7070   23.1260   20.4490 N.pl3  67  ARG67       0.1354
    134  NH2       24.3560   24.1770   18.5160 N.pl3  67  ARG67       0.1354
    135  N         23.2310   31.9640   13.6190 N.3   114  SER114     -0.1217
    136  CA        22.1470   32.3800   14.4800 C.3   114  SER114      0.1889
    137  C         22.0490   33.8960   14.4580 C.2   114  SER114      0.2288
    138  O         20.9660   34.4590   14.3250 O.2   114  SER114     -0.2866
    139  CB        22.3920   31.8980   15.9060 C.3   114  SER114      0.2089
    140  OG        22.2480   30.4920   15.9890 O.3   114  SER114     -0.2183
    141  N         20.6390   34.9020   11.2050 N.3   117  ALA117     -0.1231
    142  CA        19.2240   34.6350   11.0090 C.3   117  ALA117      0.1694
    143  C         18.4130   35.6000   11.8540 C.2   117  ALA117      0.2592
    144  O         17.2940   35.9510   11.4920 O.2   117  ALA117     -0.2718
    145  CB        18.8850   33.1860   11.3770 C.3   117  ALA117      0.0304
    146  N         18.9780   36.0300   12.9770 N.am  118  PHE118     -0.1976
    147  CA        18.2980   36.9370   13.8460 C.3   118  PHE118      0.1639
    148  C         18.2110   38.3040   13.1730 C.2   118  PHE118      0.2290
    149  O         17.1160   38.8500   13.0190 O.2   118  PHE118     -0.2864
    150  CB        19.0310   37.0560   15.1850 C.3   118  PHE118      0.0560
    151  CG        18.5750   38.2310   16.0170 C.ar  118  PHE118     -0.0200
    152  CD1       17.2280   38.3860   16.3510 C.ar  118  PHE118     -0.0042
    153  CD2       19.4850   39.2110   16.4260 C.ar  118  PHE118     -0.0042
    154  CE1       16.7960   39.5030   17.0750 C.ar  118  PHE118     -0.0003
    155  CE2       19.0640   40.3310   17.1510 C.ar  118  PHE118     -0.0003
    156  CZ        17.7190   40.4770   17.4750 C.ar  118  PHE118     -0.0000
    157  N         14.2550   37.8120   12.2880 N.3   122  PHE122     -0.1241
    158  CA        13.4750   38.0500   13.4740 C.3   122  PHE122      0.1605
    159  C         13.3690   39.5420   13.7810 C.2   122  PHE122      0.2264
    160  O         12.3630   39.9930   14.3360 O.2   122  PHE122     -0.2867
    161  CB        14.0730   37.2360   14.6200 C.3   122  PHE122      0.0534
    162  CG        14.0030   35.7530   14.3790 C.ar  122  PHE122     -0.0203
    163  CD1       14.8170   35.1520   13.4210 C.ar  122  PHE122     -0.0042
    164  CD2       13.0800   34.9660   15.0530 C.ar  122  PHE122     -0.0042
    165  CE1       14.7100   33.7870   13.1300 C.ar  122  PHE122     -0.0003
    166  CE2       12.9640   33.5960   14.7690 C.ar  122  PHE122     -0.0003
    167  CZ        13.7830   33.0100   13.8030 C.ar  122  PHE122     -0.0000
    168  N          9.6870   42.6500   13.8720 N.3   126  TYR126     -0.1241
    169  CA         9.3250   43.7790   14.6840 C.3   126  TYR126      0.1605
    170  C          9.7310   45.0640   13.9770 C.2   126  TYR126      0.2264
    171  O         10.0850   46.0570   14.6180 O.2   126  TYR126     -0.2867
    172  CB        10.0060   43.6290   16.0430 C.3   126  TYR126      0.0534
    173  CG         9.5940   42.3420   16.7130 C.ar  126  TYR126     -0.0201
    174  CD1        8.4030   42.2680   17.4310 C.ar  126  TYR126     -0.0009
    175  CD2       10.3280   41.1690   16.5270 C.ar  126  TYR126     -0.0009
    176  CE1        7.9430   41.0620   17.9360 C.ar  126  TYR126      0.0417
    177  CE2        9.8740   39.9540   17.0280 C.ar  126  TYR126      0.0417
    178  CZ         8.6760   39.9070   17.7300 C.ar  126  TYR126      0.1957
    179  OH         8.1890   38.7070   18.2060 O.3   126  TYR126     -0.2866
@<TRIPOS>BOND
     1   142   141    1
     2   142   145    1
     3   142   143    1
     4   144   143    2
     5   143   146   am
     6   157   158    1
     7   146   147    1
     8   149   148    2
     9   165   163   ar
    10   165   167   ar
    11   148   147    1
    12   163   162   ar
    13   158   159    1
    14   158   161    1
    15   135   136    1
    16   159   160    2
    17   167   166   ar
    18   147   150    1
    19   168   169    1
    20    29    27    1
    21   170   171    2
    22   170   169    1
    23    27    26    1
    24   138   137    2
    25   162   161    1
    26   162   164   ar
    27   137   136    1
    28   136   139    1
    29   169   172    1
    30   166   164   ar
    31    28    26    1
    32   150   151    1
    33    14    13    2
    34    26    23    1
    35    12    15    1
    36    12    13    1
    37    12    11    1
    38    36    35    1
    39    36    37    1
    40    36    39    1
    41    23    22    1
    42    23    24    1
    43   139   140    1
    44    13    16   am
    45    38    37    2
    46   151   152   ar
    47   151   153   ar
    48    44    43    1
    49   172   173    1
    50    25    24    2
    51   152   154   ar
    52    41    40    1
    53    41    42    1
    54   153   155   ar
    55    39    40    1
    56    22    18   am
    57   175   173   ar
    58   175   177   ar
    59    19    18    2
    60    24    30   am
    61   173   174   ar
    62    18    17    1
    63   177   178   ar
    64   154   156   ar
    65    16    17    1
    66   155   156   ar
    67    43    42    2
    68    43    45    1
    69   174   176   ar
    70    17    20    1
    71   178   176   ar
    72   178   179    1
    73    30    31    1
    74   134   132    1
    75    10     8   ar
    76    10     9   ar
    77    31    32    1
    78    31    34    1
    79     4     3    2
    80     8     6   ar
    81   131   132    2
    82   131   130    1
    83    62    61    1
    84    32    33    2
    85    20    21    1
    86     3     2    1
    87   132   133    1
    88   130   129    1
    89   129   128    1
    90     9     7   ar
    91    61    60    1
    92     6     7   ar
    93     6     5    1
    94   123   122    1
    95     2     5    1
    96     2     1    1
    97   128   125    1
    98   122   119    1
    99   121   120    2
   100   125   124    1
   101   125   126    1
   102    60    59    1
   103   120   124   am
   104   120   119    1
   105   127   126    2
   106   119   118    1
   107    59    58    1
   108   107   108    1
   109   107   106    1
   110   108   102    1
   111    52    51    1
   112   106   103    1
   113   118   111   am
   114   101    99    1
   115    98    97    2
   116   102    97   am
   117   102   103    1
   118    51    50    1
   119    51    53    1
   120    58    55    1
   121    97    96    1
   122   103   104    1
   123    50    47    1
   124   111   112    2
   125   111   110    1
   126    99    96    1
   127    99   100    1
   128    54    55    1
   129    54    48   am
   130    55    56    1
   131    96    95    1
   132    46    47    1
   133    47    48    1
   134   104   105    2
   135   110   113    1
   136   110   109    1
   137    48    49    2
   138    95    88   am
   139   117   115   ar
   140   114   113    1
   141   114   115    1
   142    56    57    2
   143    94    92   am
   144   115   116   ar
   145    92    93    2
   146    92    91    1
   147    88    87    1
   148    88    89    2
   149    90    91    1
   150    90    87    1
   151    87    86    1
   152    71    72   ar
   153    71    69   ar
   154    72    70   ar
   155    69    68   ar
   156    70    68   ar
   157    68    67    1
   158    86    84   am
   159    67    64    1
   160    85    84    2
   161    84    83    1
   162    63    64    1
   163    80    81    1
   164    80    79    1
   165    64    65    1
   166    83    82    1
   167    78    79    1
   168    78    77    1
   169    65    66    2
   170    65    73   am
   171    73    74    1
   172    77    74    1
   173    74    75    1
   174    75    76    2
