@<TRIPOS>MOLECULE
tmp/1bxdA00.pdb
 103 96 0 0 0
SMALL
GASTEIGER

@<TRIPOS>ATOM
      1  N        -12.9330   -2.9950   -9.8320 N.3    55  MET55      -0.1245
      2  CA       -12.9700   -3.0550  -11.3230 C.3    55  MET55       0.1570
      3  C        -14.2750   -3.7090  -11.7940 C.2    55  MET55       0.2261
      4  O        -14.9040   -3.2610  -12.7340 O.2    55  MET55      -0.2867
      5  CB       -11.7740   -3.9210  -11.7130 C.3    55  MET55       0.0387
      6  CG       -10.5730   -3.0290  -12.0270 C.3    55  MET55       0.0595
      7  SD        -9.4600   -3.9010  -13.1570 S.3    55  MET55      -0.1393
      8  CE        -7.9080   -3.2560  -12.4900 C.3    55  MET55       0.0692
      9  N        -18.1570   -1.9790  -11.4840 N.3    58  ASN58      -0.1240
     10  CA       -18.7650   -1.1270  -12.5460 C.3    58  ASN58       0.1653
     11  C        -19.5530   -1.9850  -13.5430 C.2    58  ASN58       0.2266
     12  O        -20.5320   -1.5480  -14.1150 O.2    58  ASN58      -0.2867
     13  CB       -17.5790   -0.4560  -13.2380 C.3    58  ASN58       0.1155
     14  CG       -18.0890    0.4100  -14.3930 C.2    58  ASN58       0.2627
     15  OD1      -18.6160   -0.1000  -15.3630 O.2    58  ASN58      -0.2716
     16  ND2      -17.9560    1.7060  -14.3290 N.am   58  ASN58      -0.0877
     17  N        -15.2950   -6.7520  -19.6960 N.3    84  ASP84      -0.1239
     18  CA       -16.7370   -6.6840  -19.3050 C.3    84  ASP84       0.1674
     19  C        -17.5650   -6.0280  -20.4130 C.2    84  ASP84       0.2266
     20  O        -17.0900   -5.1740  -21.1350 O.2    84  ASP84      -0.2867
     21  CB       -16.7610   -5.8260  -18.0410 C.3    84  ASP84       0.1410
     22  CG       -16.4430   -4.3750  -18.4040 C.2    84  ASP84       0.3668
     23  OD1      -17.2090   -3.7900  -19.1500 O.co2  84  ASP84      -0.2456
     24  OD2      -15.4370   -3.8730  -17.9280 O.co2  84  ASP84      -0.2456
     25  N        -18.7620    1.0010  -22.7530 N.3    88  GLY88      -0.1210
     26  CA       -17.3030    1.2410  -22.9630 C.3    88  GLY88       0.1956
     27  C        -16.9460    2.6690  -22.5290 C.2    88  GLY88       0.2612
     28  O        -17.7520    3.3730  -21.9540 O.2    88  GLY88      -0.2717
     29  N        -15.7390    3.0980  -22.7990 N.am   89  ILE89      -0.1965
     30  CA       -15.3250    4.4790  -22.4040 C.3    89  ILE89       0.1727
     31  C        -15.9640    5.5060  -23.3410 C.2    89  ILE89       0.2616
     32  O        -16.2450    5.2230  -24.4880 O.2    89  ILE89      -0.2715
     33  CB       -13.8080    4.4960  -22.5540 C.3    89  ILE89       0.0290
     34  CG1      -13.2000    3.4170  -21.6610 C.3    89  ILE89       0.0022
     35  CG2      -13.2670    5.8650  -22.1370 C.3    89  ILE89       0.0023
     36  CD1      -11.7800    3.1080  -22.1310 C.3    89  ILE89       0.0001
     37  N        -16.1960    6.6950  -22.8650 N.am   90  ALA90      -0.1977
     38  CA       -16.8160    7.7330  -23.7330 C.3    90  ALA90       0.1597
     39  C        -15.7930    8.2440  -24.7510 C.2    90  ALA90       0.2287
     40  O        -14.6150    7.9520  -24.6530 O.2    90  ALA90      -0.2864
     41  CB       -17.2370    8.8530  -22.7790 C.3    90  ALA90       0.0319
     42  N        -14.2690   11.3420  -22.6490 N.3    93  GLN93      -0.1245
     43  CA       -13.6220   10.8810  -21.3760 C.3    93  GLN93       0.1566
     44  C        -12.3460   10.1060  -21.6820 C.2    93  GLN93       0.2260
     45  O        -11.4230   10.0850  -20.8950 O.2    93  GLN93      -0.2867
     46  CB       -14.6580    9.9760  -20.7040 C.3    93  GLN93       0.0367
     47  CG       -15.9970   10.7130  -20.6160 C.3    93  GLN93       0.0905
     48  CD       -16.9110   10.0010  -19.6180 C.2    93  GLN93       0.2608
     49  OE1      -16.8160    8.8040  -19.4360 O.2    93  GLN93      -0.2717
     50  NE2      -17.8010   10.6920  -18.9600 N.am   93  GLN93      -0.0878
     51  N         -9.8050   12.2650  -20.6220 N.3    96  HIS96      -0.1226
     52  CA        -9.6460   12.6230  -19.1760 C.3    96  HIS96       0.1752
     53  C        -10.0570   11.4510  -18.2690 C.2    96  HIS96       0.2596
     54  O        -11.0520   11.5000  -17.5740 O.2    96  HIS96      -0.2718
     55  CB       -10.5280   13.8690  -18.9140 C.3    96  HIS96       0.0759
     56  CG       -11.8530   13.7940  -19.6360 C.ar   96  HIS96       0.0818
     57  ND1      -13.0600   13.7860  -18.9500 N.ar   96  HIS96      -0.2268
     58  CD2      -12.1840   13.8040  -20.9670 C.ar   96  HIS96       0.1154
     59  CE1      -14.0490   13.8010  -19.8640 C.ar   96  HIS96       0.1986
     60  NE2      -13.5690   13.8140  -21.1100 N.ar   96  HIS96      -0.2212
     61  N         -9.2800   10.3950  -18.2800 N.am   97  LEU97      -0.1966
     62  CA        -9.5900    9.2050  -17.4320 C.3    97  LEU97       0.1728
     63  C         -8.5490    9.1230  -16.2940 C.2    97  LEU97       0.2616
     64  O         -7.6800    8.2750  -16.2900 O.2    97  LEU97      -0.2715
     65  CB        -9.4630    8.0010  -18.3770 C.3    97  LEU97       0.0311
     66  CG       -10.7470    7.1500  -18.3330 C.3    97  LEU97       0.0022
     67  CD1      -11.1650    6.9140  -16.8860 C.3    97  LEU97       0.0001
     68  CD2      -11.8830    7.8700  -19.0710 C.3    97  LEU97       0.0001
     69  N         -8.6380   10.0230  -15.3400 N.am   98  PHE98      -0.1974
     70  CA        -7.6700   10.0360  -14.1830 C.3    98  PHE98       0.1639
     71  C         -6.2340    9.8440  -14.6900 C.2    98  PHE98       0.2290
     72  O         -5.4610    9.0940  -14.1430 O.2    98  PHE98      -0.2864
     73  CB        -8.1020    8.8980  -13.2180 C.3    98  PHE98       0.0560
     74  CG        -7.9230    7.5380  -13.8540 C.ar   98  PHE98      -0.0200
     75  CD1       -6.6920    6.8700  -13.7670 C.ar   98  PHE98      -0.0042
     76  CD2       -8.9920    6.9420  -14.5180 C.ar   98  PHE98      -0.0042
     77  CE1       -6.5390    5.6090  -14.3520 C.ar   98  PHE98      -0.0003
     78  CE2       -8.8400    5.6800  -15.1040 C.ar   98  PHE98      -0.0003
     79  CZ        -7.6120    5.0140  -15.0210 C.ar   98  PHE98      -0.0000
     80  N         -5.5600    1.0100  -20.6870 N.3   133  LEU133     -0.1245
     81  CA        -7.0020    0.6970  -20.9150 C.3   133  LEU133      0.1561
     82  C         -7.2750    0.5290  -22.4100 C.2   133  LEU133      0.2260
     83  O         -6.7780    1.2740  -23.2300 O.2   133  LEU133     -0.2867
     84  CB        -7.7580    1.9020  -20.3700 C.3   133  LEU133      0.0270
     85  CG        -7.4480    2.0640  -18.8870 C.3   133  LEU133      0.0019
     86  CD1       -7.2660    3.5460  -18.5670 C.3   133  LEU133      0.0001
     87  CD2       -8.6070    1.5010  -18.0650 C.3   133  LEU133      0.0001
     88  N        -14.6170   -3.5620  -23.4750 N.3   141  LEU141     -0.1245
     89  CA       -13.4890   -2.8990  -22.7580 C.3   141  LEU141      0.1561
     90  C        -12.6560   -3.9330  -21.9860 C.2   141  LEU141      0.2260
     91  O        -13.1840   -4.8580  -21.3920 O.2   141  LEU141     -0.2867
     92  CB       -14.1580   -1.9170  -21.7900 C.3   141  LEU141      0.0270
     93  CG       -13.0930   -1.0230  -21.1510 C.3   141  LEU141      0.0019
     94  CD1      -12.6650    0.0510  -22.1500 C.3   141  LEU141      0.0001
     95  CD2      -13.6650   -0.3540  -19.8970 C.3   141  LEU141      0.0001
     96  N         -9.0930   -4.2710  -19.3210 N.3   143  ILE143     -0.1245
     97  CA        -8.0030   -3.5630  -18.5860 C.3   143  ILE143      0.1561
     98  C         -6.6850   -4.3490  -18.6820 C.2   143  ILE143      0.2260
     99  O         -6.6680   -5.5630  -18.6120 O.2   143  ILE143     -0.2867
    100  CB        -8.4860   -3.4980  -17.1370 C.3   143  ILE143      0.0252
    101  CG1       -9.8100   -2.7300  -17.0740 C.3   143  ILE143      0.0019
    102  CG2       -7.4430   -2.7810  -16.2810 C.3   143  ILE143      0.0019
    103  CD1       -9.5600   -1.2530  -17.3890 C.3   143  ILE143      0.0001
@<TRIPOS>BOND
     1    39    40    2
     2    39    38    1
     3    32    31    2
     4    38    37    1
     5    38    41    1
     6    88    89    1
     7    31    37   am
     8    31    30    1
     9    83    82    2
    10    26    25    1
    11    26    27    1
    12    29    27   am
    13    29    30    1
    14    89    90    1
    15    89    92    1
    16    42    43    1
    17    33    30    1
    18    33    35    1
    19    33    34    1
    20    27    28    2
    21    82    81    1
    22    94    93    1
    23    36    34    1
    24    90    91    2
    25    92    93    1
    26    44    43    1
    27    44    45    2
    28    43    46    1
    29    93    95    1
    30    20    19    2
    31    60    58   ar
    32    60    59   ar
    33    58    56   ar
    34    81    80    1
    35    81    84    1
    36    46    47    1
    37    51    52    1
    38    47    48    1
    39    19    18    1
    40    84    85    1
    41    59    57   ar
    42    17    18    1
    43    56    57   ar
    44    56    55    1
    45    48    49    2
    46    48    50   am
    47    96    97    1
    48    18    21    1
    49    52    55    1
    50    52    53    1
    51    23    22   ar
    52    68    66    1
    53    85    86    1
    54    85    87    1
    55    98    99    2
    56    98    97    1
    57    97   100    1
    58    22    21    1
    59    22    24   ar
    60    65    66    1
    61    65    62    1
    62    66    67    1
    63    61    53   am
    64    61    62    1
    65    53    54    2
    66    62    63    1
    67   103   101    1
    68   100   101    1
    69   100   102    1
    70    63    64    2
    71    63    69   am
    72    15    14    2
    73    69    70    1
    74    78    79   ar
    75    78    76   ar
    76    79    77   ar
    77    71    70    1
    78    71    72    2
    79    76    74   ar
    80    14    16   am
    81    14    13    1
    82    77    75   ar
    83    70    73    1
    84    12    11    2
    85    74    75   ar
    86    74    73    1
    87    11    10    1
    88    13    10    1
    89     7     8    1
    90     7     6    1
    91     4     3    2
    92    10     9    1
    93     6     5    1
    94     3     2    1
    95     5     2    1
    96     2     1    1
