@<TRIPOS>MOLECULE
tmp/1bxhD00.pdb
 89 84 0 0 0
SMALL
GASTEIGER

@<TRIPOS>ATOM
      1  N         -7.4860   25.7250    6.6000 N.3    12  TYR12      -0.1241
      2  CA        -8.6500   25.3800    5.7820 C.3    12  TYR12       0.1605
      3  C         -9.9800   25.6240    6.4840 C.2    12  TYR12       0.2264
      4  O        -10.2580   25.0350    7.5310 O.2    12  TYR12      -0.2867
      5  CB        -8.5760   23.9110    5.3890 C.3    12  TYR12       0.0534
      6  CG        -9.5920   23.5060    4.3550 C.ar   12  TYR12      -0.0201
      7  CD1       -9.4140   23.8330    3.0070 C.ar   12  TYR12      -0.0009
      8  CD2      -10.7360   22.8000    4.7200 C.ar   12  TYR12      -0.0009
      9  CE1      -10.3540   23.4630    2.0450 C.ar   12  TYR12       0.0417
     10  CE2      -11.6850   22.4260    3.7680 C.ar   12  TYR12       0.0417
     11  CZ       -11.4850   22.7620    2.4320 C.ar   12  TYR12       0.1957
     12  OH       -12.4260   22.4060    1.4980 O.3    12  TYR12      -0.2866
     13  N        -13.4440   24.9390    7.4620 N.3    14  ASN14      -0.1240
     14  CA       -14.4750   23.9150    7.4220 C.3    14  ASN14       0.1653
     15  C        -15.6950   24.5350    8.0880 C.2    14  ASN14       0.2266
     16  O        -16.0960   24.1230    9.1810 O.2    14  ASN14      -0.2867
     17  CB       -14.0570   22.6570    8.1810 C.3    14  ASN14       0.1155
     18  CG       -12.8450   21.9900    7.5760 C.2    14  ASN14       0.2627
     19  OD1      -11.7250   22.4870    7.6810 O.2    14  ASN14      -0.2716
     20  ND2      -13.0640   20.8620    6.9200 N.am   14  ASN14      -0.0877
     21  N         -5.8320   16.8170    4.3320 N.3    98  GLY98      -0.1210
     22  CA        -6.9610   15.9900    3.9480 C.3    98  GLY98       0.1956
     23  C         -6.9550   15.8970    2.4370 C.2    98  GLY98       0.2612
     24  O         -5.9730   15.4350    1.8470 O.2    98  GLY98      -0.2717
     25  N         -8.0410   16.3440    1.8110 N.am   99  LEU99      -0.1965
     26  CA        -8.1370   16.3330    0.3580 C.3    99  LEU99       0.1728
     27  C         -7.0750   17.3000   -0.1520 C.2    99  LEU99       0.2616
     28  O         -6.3270   16.9950   -1.0740 O.2    99  LEU99      -0.2715
     29  CB        -9.5200   16.7960   -0.0850 C.3    99  LEU99       0.0311
     30  CG        -9.7370   16.7650   -1.5910 C.3    99  LEU99       0.0022
     31  CD1       -9.4630   15.3450   -2.1100 C.3    99  LEU99       0.0001
     32  CD2      -11.1630   17.2320   -1.8990 C.3    99  LEU99       0.0001
     33  N         -7.0180   18.4770    0.4550 N.am  100  TYR100     -0.1974
     34  CA        -6.0190   19.4660    0.0820 C.3   100  TYR100      0.1639
     35  C         -4.8420   19.3150    1.0430 C.2   100  TYR100      0.2290
     36  O         -5.0110   18.8160    2.1560 O.2   100  TYR100     -0.2864
     37  CB        -6.6210   20.8610    0.1750 C.3   100  TYR100      0.0560
     38  CG        -7.7300   21.0790   -0.8170 C.ar  100  TYR100     -0.0198
     39  CD1       -7.4760   21.0250   -2.1900 C.ar  100  TYR100     -0.0009
     40  CD2       -9.0290   21.3450   -0.3950 C.ar  100  TYR100     -0.0009
     41  CE1       -8.4940   21.2380   -3.1260 C.ar  100  TYR100      0.0417
     42  CE2      -10.0590   21.5600   -1.3210 C.ar  100  TYR100      0.0417
     43  CZ        -9.7840   21.5080   -2.6870 C.ar  100  TYR100      0.1957
     44  OH       -10.7840   21.7530   -3.6100 O.3   100  TYR100     -0.2866
     45  N         -4.1960   13.4470    3.0570 N.3   168  SER168     -0.1217
     46  CA        -4.5910   12.3990    3.9960 C.3   168  SER168      0.1889
     47  C         -3.4690   11.9990    4.9390 C.2   168  SER168      0.2288
     48  O         -3.2750   10.8110    5.2060 O.2   168  SER168     -0.2866
     49  CB        -5.0570   11.1660    3.2300 C.3   168  SER168      0.2089
     50  OG        -6.2020   11.4780    2.4520 O.3   168  SER168     -0.2183
     51  N         -4.1150   23.1440    3.4190 N.3   207  ALA207     -0.1231
     52  CA        -4.8990   22.4560    4.4380 C.3   207  ALA207      0.1694
     53  C         -3.9650   21.4350    5.0680 C.2   207  ALA207      0.2592
     54  O         -3.0150   21.0080    4.4130 O.2   207  ALA207     -0.2718
     55  CB        -6.1030   21.7750    3.8050 C.3   207  ALA207      0.0304
     56  N         -4.2120   21.0330    6.3160 N.am  208  ASP208     -0.1974
     57  CA        -5.3360   21.5020    7.1300 C.3   208  ASP208      0.1709
     58  C         -4.9150   22.4150    8.2820 C.2   208  ASP208      0.2293
     59  O         -5.7490   23.1480    8.8450 O.2   208  ASP208     -0.2864
     60  CB        -6.1090   20.3010    7.6920 C.3   208  ASP208      0.1436
     61  CG        -7.2290   19.8440    6.7750 C.2   208  ASP208      0.3671
     62  OD1       -8.2690   20.5270    6.7450 O.co2 208  ASP208     -0.2456
     63  OD2       -7.0670   18.8180    6.0770 O.co2 208  ASP208     -0.2456
     64  N         -8.6460    8.1260   12.1680 N.3   224  GLY224     -0.1225
     65  CA        -9.3510    8.9470   11.2020 C.3   224  GLY224      0.1811
     66  C         -9.3150   10.4330   11.4980 C.2   224  GLY224      0.2280
     67  O        -10.1300   11.1810   10.9570 O.2   224  GLY224     -0.2866
     68  N         -7.4180   12.6770   10.4410 N.3   226  THR226     -0.1203
     69  CA        -6.7230   13.4420    9.4100 C.3   226  THR226      0.1994
     70  C         -7.6710   14.5830    9.0210 C.2   226  THR226      0.2618
     71  O         -8.7690   14.6970    9.5670 O.2   226  THR226     -0.2717
     72  CB        -6.4340   12.5770    8.1660 C.3   226  THR226      0.1784
     73  OG1       -7.6380   11.9100    7.7850 O.3   226  THR226     -0.2211
     74  CG2       -5.3610   11.5470    8.4430 C.3   226  THR226      0.0376
     75  N         -7.2540   15.4260    8.0910 N.am  227  GLY227     -0.1942
     76  CA        -8.1150   16.5230    7.6830 C.3   227  GLY227      0.2014
     77  C         -8.4770   17.5450    8.7550 C.2   227  GLY227      0.2638
     78  O         -7.6490   17.9840    9.5460 O.2   227  GLY227     -0.2714
     79  N         -9.7450   17.9290    8.7610 N.am  228  ARG228     -0.1977
     80  CA       -10.2910   18.9210    9.6850 C.3   228  ARG228      0.1597
     81  C         -9.9880   18.6880   11.1630 C.2   228  ARG228      0.2287
     82  O         -9.9630   19.6430   11.9400 O.2   228  ARG228     -0.2864
     83  CB       -11.8130   18.9740    9.5270 C.3   228  ARG228      0.0334
     84  CG       -12.3990   17.5910    9.7230 C.3   228  ARG228      0.0492
     85  CD       -13.8650   17.5500   10.1340 C.3   228  ARG228      0.2205
     86  NE       -14.8020   18.0960    9.1590 N.pl3 228  ARG228     -0.0865
     87  CZ       -16.0850   17.7400    9.1040 C.cat 228  ARG228      0.5346
     88  NH1      -16.5690   16.8390    9.9650 N.pl3 228  ARG228      0.1354
     89  NH2      -16.8830   18.2870    8.1960 N.pl3 228  ARG228      0.1354
@<TRIPOS>BOND
     1    44    43    1
     2    41    43   ar
     3    41    39   ar
     4    43    42   ar
     5    39    38   ar
     6    31    30    1
     7    32    30    1
     8    30    29    1
     9    42    40   ar
    10    28    27    2
    11    38    40   ar
    12    38    37    1
    13    27    26    1
    14    27    33   am
    15    29    26    1
    16    34    37    1
    17    34    33    1
    18    34    35    1
    19    26    25    1
    20    35    36    2
    21    12    11    1
    22    25    23   am
    23    24    23    2
    24     9    11   ar
    25     9     7   ar
    26    11    10   ar
    27    23    22    1
    28    50    49    1
    29     7     6   ar
    30    45    46    1
    31    49    46    1
    32    51    52    1
    33    10     8   ar
    34    55    52    1
    35    22    21    1
    36    46    47    1
    37     6     8   ar
    38     6     5    1
    39    54    53    2
    40    52    53    1
    41    47    48    2
    42    53    56   am
    43     5     2    1
    44     2     3    1
    45     2     1    1
    46    63    61   ar
    47    56    57    1
    48     3     4    2
    49    62    61   ar
    50    61    60    1
    51    20    18   am
    52    57    60    1
    53    57    58    1
    54    14    13    1
    55    14    15    1
    56    14    17    1
    57    18    19    2
    58    18    17    1
    59    76    75    1
    60    76    77    1
    61    73    72    1
    62    15    16    2
    63    75    70   am
    64    72    74    1
    65    72    69    1
    66    89    87    1
    67    58    59    2
    68    77    79   am
    69    77    78    2
    70    79    80    1
    71    70    69    1
    72    70    71    2
    73    87    86    2
    74    87    88    1
    75    86    85    1
    76    69    68    1
    77    83    80    1
    78    83    84    1
    79    80    81    1
    80    84    85    1
    81    67    66    2
    82    81    82    2
    83    65    66    1
    84    65    64    1
