@<TRIPOS>MOLECULE
tmp/1by3A03.pdb
 145 144 0 0 0
SMALL
GASTEIGER

@<TRIPOS>ATOM
      1  N        103.6610   37.6750   19.0130 N.3    62  ARG62      -0.1245
      2  CA       104.9880   37.2750   19.4640 C.3    62  ARG62       0.1563
      3  C        105.0520   35.7800   19.7990 C.2    62  ARG62       0.2260
      4  O        105.9740   35.3060   20.4630 O.2    62  ARG62      -0.2867
      5  CB       105.3990   38.1370   20.6620 C.3    62  ARG62       0.0307
      6  CG       106.7030   37.7410   21.3590 C.3    62  ARG62       0.0489
      7  CD       107.9300   37.8380   20.4710 C.3    62  ARG62       0.2205
      8  NE       108.4340   39.2020   20.3650 N.pl3  62  ARG62      -0.0865
      9  CZ       109.7250   39.5190   20.3790 C.cat  62  ARG62       0.5346
     10  NH1      110.6470   38.5740   20.5000 N.pl3  62  ARG62       0.1354
     11  NH2      110.0970   40.7830   20.2650 N.pl3  62  ARG62       0.1354
     12  N        112.0750   51.5920   27.0200 N.3    96  PHE96      -0.1227
     13  CA       113.0590   50.6290   26.5380 C.3    96  PHE96       0.1736
     14  C        112.5600   49.2580   26.9930 C.2    96  PHE96       0.2595
     15  O        111.3740   48.9750   26.8750 O.2    96  PHE96      -0.2718
     16  CB       114.4380   50.9470   27.1300 C.3    96  PHE96       0.0547
     17  CG       115.5870   50.5860   26.2260 C.ar   96  PHE96      -0.0202
     18  CD1      115.6320   51.0540   24.9140 C.ar   96  PHE96      -0.0042
     19  CD2      116.6260   49.7770   26.6830 C.ar   96  PHE96      -0.0042
     20  CE1      116.6900   50.7180   24.0710 C.ar   96  PHE96      -0.0003
     21  CE2      117.6890   49.4360   25.8490 C.ar   96  PHE96      -0.0003
     22  CZ       117.7190   49.9070   24.5390 C.ar   96  PHE96      -0.0000
     23  N        113.4300   48.4110   27.5320 N.am   97  TYR97      -0.1976
     24  CA       112.9770   47.0930   27.9720 C.3    97  TYR97       0.1639
     25  C        112.1460   47.1020   29.2380 C.2    97  TYR97       0.2290
     26  O        111.5020   46.1060   29.5670 O.2    97  TYR97      -0.2864
     27  CB       114.1520   46.1560   28.2020 C.3    97  TYR97       0.0560
     28  CG       114.8440   45.7490   26.9420 C.ar   97  TYR97      -0.0198
     29  CD1      114.3760   44.6740   26.1850 C.ar   97  TYR97      -0.0009
     30  CD2      115.9690   46.4350   26.5010 C.ar   97  TYR97      -0.0009
     31  CE1      115.0210   44.2840   25.0150 C.ar   97  TYR97       0.0417
     32  CE2      116.6230   46.0580   25.3450 C.ar   97  TYR97       0.0417
     33  CZ       116.1450   44.9840   24.6080 C.ar   97  TYR97       0.1957
     34  OH       116.8180   44.6150   23.4840 O.3    97  TYR97      -0.2866
     35  N        112.7570   35.0520   24.4480 N.3   225  TYR225     -0.1227
     36  CA       112.4100   36.3130   23.7940 C.3   225  TYR225      0.1736
     37  C        113.3800   36.5260   22.6270 C.2   225  TYR225      0.2596
     38  O        113.8780   37.6380   22.3940 O.2   225  TYR225     -0.2718
     39  CB       112.5410   37.4550   24.8100 C.3   225  TYR225      0.0548
     40  CG       111.9140   38.7700   24.4020 C.ar  225  TYR225     -0.0200
     41  CD1      110.5410   38.8720   24.1950 C.ar  225  TYR225     -0.0009
     42  CD2      112.6850   39.9230   24.2760 C.ar  225  TYR225     -0.0009
     43  CE1      109.9480   40.0870   23.8850 C.ar  225  TYR225      0.0417
     44  CE2      112.1020   41.1470   23.9630 C.ar  225  TYR225      0.0417
     45  CZ       110.7280   41.2240   23.7730 C.ar  225  TYR225      0.1957
     46  OH       110.1220   42.4420   23.5230 O.3   225  TYR225     -0.2866
     47  N        113.6470   35.4570   21.8860 N.am  226  GLY226     -0.1942
     48  CA       114.5830   35.5640   20.7820 C.3   226  GLY226      0.2014
     49  C        114.0060   35.7660   19.3960 C.2   226  GLY226      0.2638
     50  O        112.8080   35.9540   19.2200 O.2   226  GLY226     -0.2714
     51  N        114.8880   35.7370   18.4070 N.am  227  TRP227     -0.1973
     52  CA       114.5050   35.9020   17.0190 C.3   227  TRP227      0.1640
     53  C        114.9530   34.6780   16.2330 C.2   227  TRP227      0.2290
     54  O        116.0680   34.2020   16.4130 O.2   227  TRP227     -0.2864
     55  CB       115.1790   37.1350   16.4090 C.3   227  TRP227      0.0576
     56  CG       114.7360   38.4740   16.9380 C.ar  227  TRP227      0.0006
     57  CD1      113.6990   38.7300   17.7880 C.ar  227  TRP227      0.0946
     58  CD2      115.2870   39.7510   16.5860 C.ar  227  TRP227      0.0152
     59  NE1      113.5620   40.0890   17.9810 N.ar  227  TRP227     -0.2442
     60  CE2      114.5250   40.7380   17.2500 C.ar  227  TRP227      0.0810
     61  CE3      116.3510   40.1570   15.7680 C.ar  227  TRP227      0.0012
     62  CZ2      114.7910   42.1050   17.1220 C.ar  227  TRP227      0.0191
     63  CZ3      116.6170   41.5170   15.6410 C.ar  227  TRP227      0.0001
     64  CH2      115.8350   42.4750   16.3170 C.ar  227  TRP227      0.0015
     65  N        117.0820   36.5030   31.8700 N.3   256  TYR256     -0.1241
     66  CA       116.1810   37.6440   31.6900 C.3   256  TYR256      0.1605
     67  C        115.2700   37.6890   32.9090 C.2   256  TYR256      0.2264
     68  O        114.4940   36.7630   33.1310 O.2   256  TYR256     -0.2867
     69  CB       115.3510   37.4180   30.4280 C.3   256  TYR256      0.0534
     70  CG       114.8200   38.6560   29.7320 C.ar  256  TYR256     -0.0201
     71  CD1      114.2120   39.6960   30.4440 C.ar  256  TYR256     -0.0009
     72  CD2      114.8830   38.7550   28.3370 C.ar  256  TYR256     -0.0009
     73  CE1      113.6800   40.8010   29.7760 C.ar  256  TYR256      0.0417
     74  CE2      114.3590   39.8440   27.6630 C.ar  256  TYR256      0.0417
     75  CZ       113.7560   40.8660   28.3790 C.ar  256  TYR256      0.1957
     76  OH       113.2210   41.9320   27.6850 O.3   256  TYR256     -0.2866
     77  N        119.0010   41.4930   31.7440 N.3   290  GLN290     -0.1245
     78  CA       119.1390   40.3580   30.8570 C.3   290  GLN290      0.1566
     79  C        120.5250   40.2420   30.2490 C.2   290  GLN290      0.2260
     80  O        121.2180   41.2390   30.0360 O.2   290  GLN290     -0.2867
     81  CB       118.1210   40.4560   29.7250 C.3   290  GLN290      0.0367
     82  CG       118.3550   41.6570   28.8330 C.3   290  GLN290      0.0905
     83  CD       117.5190   41.6150   27.5870 C.2   290  GLN290      0.2608
     84  OE1      117.6830   40.7280   26.7570 O.2   290  GLN290     -0.2717
     85  NE2      116.6080   42.5760   27.4460 N.am  290  GLN290     -0.0878
     86  N        121.4800   38.4060   27.0420 N.3   292  SER292     -0.1217
     87  CA       120.8830   37.6900   25.9280 C.3   292  SER292      0.1889
     88  C        121.6940   37.5860   24.6510 C.2   292  SER292      0.2288
     89  O        122.3730   38.5270   24.2530 O.2   292  SER292     -0.2866
     90  CB       119.5450   38.3310   25.5700 C.3   292  SER292      0.2089
     91  OG       118.6970   38.4050   26.6940 O.3   292  SER292     -0.2183
     92  N        120.8580   36.5550   20.7550 N.3   294  TYR294     -0.1241
     93  CA       119.6960   36.3680   19.9050 C.3   294  TYR294      0.1605
     94  C        120.0420   36.2140   18.4350 C.2   294  TYR294      0.2264
     95  O        121.0660   36.7010   17.9720 O.2   294  TYR294     -0.2867
     96  CB       118.7420   37.5500   20.0990 C.3   294  TYR294      0.0534
     97  CG       119.3760   38.8860   19.7880 C.ar  294  TYR294     -0.0201
     98  CD1      120.2040   39.5200   20.7190 C.ar  294  TYR294     -0.0009
     99  CD2      119.1940   39.4950   18.5420 C.ar  294  TYR294     -0.0009
    100  CE1      120.8400   40.7240   20.4190 C.ar  294  TYR294      0.0417
    101  CE2      119.8220   40.7040   18.2300 C.ar  294  TYR294      0.0417
    102  CZ       120.6440   41.3090   19.1730 C.ar  294  TYR294      0.1957
    103  OH       121.2590   42.5020   18.8710 O.3   294  TYR294     -0.2866
    104  N        119.8730   36.6970   14.3250 N.3   296  TYR296     -0.1241
    105  CA       119.7830   37.8720   13.4670 C.3   296  TYR296      0.1605
    106  C        119.8070   37.4380   12.0060 C.2   296  TYR296      0.2264
    107  O        120.6070   37.9340   11.2220 O.2   296  TYR296     -0.2867
    108  CB       120.9490   38.8270   13.7280 C.3   296  TYR296      0.0534
    109  CG       120.6150   40.2810   13.4670 C.ar  296  TYR296     -0.0201
    110  CD1      120.5360   40.7800   12.1680 C.ar  296  TYR296     -0.0009
    111  CD2      120.3440   41.1500   14.5210 C.ar  296  TYR296     -0.0009
    112  CE1      120.1900   42.1090   11.9260 C.ar  296  TYR296      0.0417
    113  CE2      120.0010   42.4780   14.2920 C.ar  296  TYR296      0.0417
    114  CZ       119.9220   42.9500   12.9950 C.ar  296  TYR296      0.1957
    115  OH       119.5500   44.2560   12.7750 O.3   296  TYR296     -0.2866
    116  N        123.0580   41.2100   23.8980 N.3   327  VAL327     -0.1245
    117  CA       122.7640   42.4550   24.5700 C.3   327  VAL327      0.1561
    118  C        122.8410   42.1970   26.0700 C.2   327  VAL327      0.2260
    119  O        122.4440   41.1340   26.5530 O.2   327  VAL327     -0.2867
    120  CB       121.3510   42.9940   24.1810 C.3   327  VAL327      0.0252
    121  CG1      120.3430   41.8680   24.1660 C.3   327  VAL327      0.0019
    122  CG2      120.9030   44.0590   25.1720 C.3   327  VAL327      0.0019
    123  N        125.6050   46.5960   23.8590 N.3   372  PHE372     -0.1241
    124  CA       125.1770   45.7960   22.7070 C.3   372  PHE372      0.1605
    125  C        126.3300   45.2730   21.8650 C.2   372  PHE372      0.2264
    126  O        127.3450   45.9420   21.6860 O.2   372  PHE372     -0.2867
    127  CB       124.2540   46.5960   21.7780 C.3   372  PHE372      0.0534
    128  CG       122.9700   47.0400   22.4180 C.ar  372  PHE372     -0.0203
    129  CD1      122.9040   48.2390   23.1210 C.ar  372  PHE372     -0.0042
    130  CD2      121.8230   46.2640   22.3100 C.ar  372  PHE372     -0.0042
    131  CE1      121.7200   48.6580   23.7050 C.ar  372  PHE372     -0.0003
    132  CE2      120.6360   46.6760   22.8910 C.ar  372  PHE372     -0.0003
    133  CZ       120.5840   47.8770   23.5900 C.ar  372  PHE372     -0.0000
    134  N        125.8220   51.5090   25.8310 N.3   404  TYR404     -0.1241
    135  CA       124.6240   52.2830   25.5530 C.3   404  TYR404      0.1605
    136  C        124.1310   52.6700   26.9380 C.2   404  TYR404      0.2264
    137  O        123.4910   51.8700   27.6130 O.2   404  TYR404     -0.2867
    138  CB       123.5790   51.4240   24.8400 C.3   404  TYR404      0.0534
    139  CG       122.3370   52.1940   24.4540 C.ar  404  TYR404     -0.0201
    140  CD1      122.3690   53.1280   23.4240 C.ar  404  TYR404     -0.0009
    141  CD2      121.1410   52.0260   25.1530 C.ar  404  TYR404     -0.0009
    142  CE1      121.2390   53.8840   23.0960 C.ar  404  TYR404      0.0417
    143  CE2      120.0080   52.7750   24.8370 C.ar  404  TYR404      0.0417
    144  CZ       120.0640   53.7050   23.8080 C.ar  404  TYR404      0.1957
    145  OH       118.9550   54.4620   23.4960 O.3   404  TYR404     -0.2866
@<TRIPOS>BOND
     1   107   106    2
     2   112   110   ar
     3   112   114   ar
     4   106   105    1
     5   110   109   ar
     6   115   114    1
     7   114   113   ar
     8   105   108    1
     9   105   104    1
    10   109   108    1
    11   109   111   ar
    12   113   111   ar
    13    63    61   ar
    14    63    64   ar
    15    61    58   ar
    16    53    54    2
    17    53    52    1
    18    64    62   ar
    19    55    56    1
    20    55    52    1
    21    58    56   ar
    22    58    60   ar
    23    56    57   ar
    24    52    51    1
    25    62    60   ar
    26    60    59   ar
    27    57    59   ar
    28    95    94    2
    29   101    99   ar
    30   101   102   ar
    31    51    49   am
    32    94    93    1
    33    99    97   ar
    34   103   102    1
    35     1     2    1
    36   102   100   ar
    37    50    49    2
    38    49    48    1
    39     2     3    1
    40     2     5    1
    41    97    96    1
    42    97    98   ar
    43     3     4    2
    44    93    96    1
    45    93    92    1
    46    11     9    1
    47     8     9    2
    48     8     7    1
    49     9    10    1
    50   100    98   ar
    51     7     6    1
    52     5     6    1
    53    48    47    1
    54   126   125    2
    55   127   128    1
    56   127   124    1
    57   125   124    1
    58    47    37   am
    59   130   128   ar
    60   130   132   ar
    61    38    37    2
    62   128   129   ar
    63    37    36    1
    64   124   123    1
    65   132   133   ar
    66   142   140   ar
    67   142   144   ar
    68   129   131   ar
    69   140   139   ar
    70    34    33    1
    71   145   144    1
    72    46    45    1
    73   133   131   ar
    74    45    43   ar
    75    45    44   ar
    76    36    35    1
    77    36    39    1
    78   144   143   ar
    79    43    41   ar
    80   116   117    1
    81    44    42   ar
    82    20    22   ar
    83    20    18   ar
    84   121   120    1
    85   120   117    1
    86   120   122    1
    87    41    40   ar
    88    89    88    2
    89    42    40   ar
    90    40    39    1
    91   139   138    1
    92   139   141   ar
    93    22    21   ar
    94   117   118    1
    95    33    31   ar
    96    33    32   ar
    97    88    87    1
    98   143   141   ar
    99   138   135    1
   100    18    17   ar
   101    31    29   ar
   102    32    30   ar
   103   135   134    1
   104   135   136    1
   105    90    87    1
   106    90    91    1
   107    21    19   ar
   108    87    86    1
   109   118   119    2
   110    29    28   ar
   111    17    19   ar
   112    17    16    1
   113    30    28   ar
   114    13    14    1
   115    13    12    1
   116    13    16    1
   117    84    83    2
   118    15    14    2
   119   136   137    2
   120    28    27    1
   121    14    23   am
   122    85    83   am
   123    23    24    1
   124    83    82    1
   125    74    72   ar
   126    74    75   ar
   127    76    75    1
   128    24    27    1
   129    24    25    1
   130    72    70   ar
   131    75    73   ar
   132    82    81    1
   133    25    26    2
   134    81    78    1
   135    70    69    1
   136    70    71   ar
   137    73    71   ar
   138    80    79    2
   139    79    78    1
   140    69    66    1
   141    78    77    1
   142    66    65    1
   143    66    67    1
   144    67    68    2
