@<TRIPOS>MOLECULE
tmp/1by3A05.pdb
 105 101 0 0 0
SMALL
GASTEIGER

@<TRIPOS>ATOM
      1  N        100.7490   27.6590   42.3760 N.3   157  THR157     -0.1218
      2  CA        99.9130   27.6660   43.5560 C.3   157  THR157      0.1862
      3  C         99.5350   29.1270   43.7990 C.2   157  THR157      0.2287
      4  O        100.2940   30.0420   43.4700 O.2   157  THR157     -0.2866
      5  CB       100.6580   27.0960   44.7790 C.3   157  THR157      0.1770
      6  OG1       99.8080   27.1730   45.9290 O.3   157  THR157     -0.2211
      7  CG2      101.9260   27.8840   45.0460 C.3   157  THR157      0.0375
      8  N         96.5680   31.9700   46.1220 N.3   159  PHE159     -0.1241
      9  CA        95.5150   32.1890   47.0860 C.3   159  PHE159      0.1605
     10  C         94.9200   33.5770   46.8830 C.2   159  PHE159      0.2264
     11  O         95.5520   34.4680   46.3120 O.2   159  PHE159     -0.2867
     12  CB        96.0740   32.0320   48.5040 C.3   159  PHE159      0.0534
     13  CG        97.1080   33.0510   48.8680 C.ar  159  PHE159     -0.0203
     14  CD1       96.7330   34.2820   49.4040 C.ar  159  PHE159     -0.0042
     15  CD2       98.4600   32.7930   48.6610 C.ar  159  PHE159     -0.0042
     16  CE1       97.6970   35.2480   49.7300 C.ar  159  PHE159     -0.0003
     17  CE2       99.4330   33.7490   48.9830 C.ar  159  PHE159     -0.0003
     18  CZ        99.0470   34.9810   49.5180 C.ar  159  PHE159     -0.0000
     19  N         98.0060   36.2340   46.1710 N.3   177  GLY177     -0.1210
     20  CA        99.3270   36.0300   45.6130 C.3   177  GLY177      0.1956
     21  C         99.4650   34.7110   44.8860 C.2   177  GLY177      0.2612
     22  O         98.5920   33.8450   44.9860 O.2   177  GLY177     -0.2717
     23  N        100.5560   34.5600   44.1420 N.am  178  LEU178     -0.1965
     24  CA       100.7920   33.3260   43.4230 C.3   178  LEU178      0.1728
     25  C        102.2710   33.0840   43.2270 C.2   178  LEU178      0.2616
     26  O        103.0770   34.0060   43.2980 O.2   178  LEU178     -0.2715
     27  CB       100.0650   33.3290   42.0630 C.3   178  LEU178      0.0311
     28  CG       100.5370   34.0520   40.7930 C.3   178  LEU178      0.0022
     29  CD1      100.7230   35.5060   41.0770 C.3   178  LEU178      0.0001
     30  CD2      101.8350   33.4620   40.2850 C.3   178  LEU178      0.0001
     31  N        102.6140   31.8210   43.0070 N.am  179  ALA179     -0.1977
     32  CA       103.9860   31.4090   42.7620 C.3   179  ALA179      0.1597
     33  C        103.8940   30.4170   41.6200 C.2   179  ALA179      0.2287
     34  O        103.1850   29.4180   41.7150 O.2   179  ALA179     -0.2864
     35  CB       104.5800   30.7420   43.9950 C.3   179  ALA179      0.0319
     36  N        106.7340   35.3570   41.0590 N.3   194  TYR194     -0.1227
     37  CA       106.2670   35.4090   42.4290 C.3   194  TYR194      0.1736
     38  C        105.6200   36.7580   42.6340 C.2   194  TYR194      0.2595
     39  O        106.2580   37.7930   42.4680 O.2   194  TYR194     -0.2718
     40  CB       107.4300   35.2070   43.4030 C.3   194  TYR194      0.0548
     41  CG       108.2100   33.9360   43.1350 C.ar  194  TYR194     -0.0200
     42  CD1      107.7760   32.7080   43.6450 C.ar  194  TYR194     -0.0009
     43  CD2      109.3440   33.9440   42.3170 C.ar  194  TYR194     -0.0009
     44  CE1      108.4440   31.5280   43.3470 C.ar  194  TYR194      0.0417
     45  CE2      110.0170   32.7680   42.0140 C.ar  194  TYR194      0.0417
     46  CZ       109.5580   31.5660   42.5330 C.ar  194  TYR194      0.1957
     47  OH       110.2180   30.3990   42.2390 O.3   194  TYR194     -0.2866
     48  N        104.3420   36.7470   42.9800 N.am  195  ALA195     -0.1966
     49  CA       103.6180   37.9870   43.1800 C.3   195  ALA195      0.1728
     50  C        102.6900   37.9240   44.3760 C.2   195  ALA195      0.2616
     51  O        102.1680   36.8680   44.7190 O.2   195  ALA195     -0.2715
     52  CB       102.8240   38.3260   41.9280 C.3   195  ALA195      0.0334
     53  N        102.5070   39.0760   45.0050 N.am  196  ILE196     -0.1977
     54  CA       101.6320   39.2200   46.1550 C.3   196  ILE196      0.1596
     55  C        100.9540   40.5770   45.9540 C.2   196  ILE196      0.2287
     56  O        101.5980   41.5520   45.5490 O.2   196  ILE196     -0.2864
     57  CB       102.4360   39.1920   47.4840 C.3   196  ILE196      0.0276
     58  CG1      101.4820   39.2880   48.6720 C.3   196  ILE196      0.0022
     59  CG2      103.4360   40.3290   47.5190 C.3   196  ILE196      0.0022
     60  CD1      100.5480   38.1260   48.7890 C.3   196  ILE196      0.0001
     61  N        103.4370   43.5840   44.2630 N.3   216  PHE216     -0.1227
     62  CA       104.8730   43.2960   44.2290 C.3   216  PHE216      0.1736
     63  C        105.1210   42.0360   43.4270 C.2   216  PHE216      0.2595
     64  O        104.4940   41.0100   43.6680 O.2   216  PHE216     -0.2718
     65  CB       105.4240   43.0990   45.6370 C.3   216  PHE216      0.0547
     66  CG       105.1240   44.2300   46.5630 C.ar  216  PHE216     -0.0202
     67  CD1      103.9210   44.2720   47.2560 C.ar  216  PHE216     -0.0042
     68  CD2      106.0270   45.2790   46.7140 C.ar  216  PHE216     -0.0042
     69  CE1      103.6230   45.3390   48.0810 C.ar  216  PHE216     -0.0003
     70  CE2      105.7380   46.3510   47.5370 C.ar  216  PHE216     -0.0003
     71  CZ       104.5330   46.3830   48.2210 C.ar  216  PHE216     -0.0000
     72  N        106.0440   42.1000   42.4780 N.am  217  GLN217     -0.1965
     73  CA       106.3110   40.9380   41.6540 C.3   217  GLN217      0.1733
     74  C        107.7850   40.7170   41.3760 C.2   217  GLN217      0.2616
     75  O        108.5040   41.6460   41.0000 O.2   217  GLN217     -0.2715
     76  CB       105.5660   41.0650   40.3270 C.3   217  GLN217      0.0408
     77  CG       105.5030   39.7730   39.5560 C.3   217  GLN217      0.0908
     78  CD       104.7220   39.9010   38.2850 C.2   217  GLN217      0.2608
     79  OE1      105.1890   40.4860   37.3190 O.2   217  GLN217     -0.2717
     80  NE2      103.5180   39.3590   38.2760 N.am  217  GLN217     -0.0878
     81  N        108.2250   39.4740   41.5500 N.am  218  ASN218     -0.1972
     82  CA       109.6090   39.1170   41.3020 C.3   218  ASN218      0.1688
     83  C        109.7440   37.9410   40.3340 C.2   218  ASN218      0.2292
     84  O        109.2830   36.8350   40.6080 O.2   218  ASN218     -0.2864
     85  CB       110.3160   38.7880   42.6120 C.3   218  ASN218      0.1181
     86  CG       111.7450   38.3760   42.3880 C.2   218  ASN218      0.2629
     87  OD1      112.5040   39.0830   41.7180 O.2   218  ASN218     -0.2716
     88  ND2      112.1270   37.2240   42.9340 N.am  218  ASN218     -0.0877
     89  N        111.6090   42.8110   38.0710 N.3   259  ASN259     -0.1240
     90  CA       111.1430   43.0270   39.4290 C.3   259  ASN259      0.1653
     91  C        110.2530   44.2790   39.4550 C.2   259  ASN259      0.2266
     92  O        110.6360   45.3250   38.9310 O.2   259  ASN259     -0.2867
     93  CB       112.3390   43.1650   40.3690 C.3   259  ASN259      0.1155
     94  CG       111.9270   43.2400   41.8210 C.2   259  ASN259      0.2627
     95  OD1      111.5520   44.3020   42.3180 O.2   259  ASN259     -0.2716
     96  ND2      111.9690   42.1040   42.5080 N.am  259  ASN259     -0.0877
     97  N        107.5410   46.8760   41.8450 N.3   261  LYS261     -0.1245
     98  CA       106.9770   47.3360   43.1230 C.3   261  LYS261      0.1561
     99  C        105.9990   48.4990   42.8640 C.2   261  LYS261      0.2260
    100  O        106.3710   49.4910   42.2270 O.2   261  LYS261     -0.2867
    101  CB       108.0790   47.8360   44.0540 C.3   261  LYS261      0.0271
    102  CG       109.1250   46.8200   44.4570 C.3   261  LYS261      0.0035
    103  CD       110.1880   47.5070   45.3220 C.3   261  LYS261      0.0206
    104  CE       111.2050   46.5300   45.8960 C.3   261  LYS261      0.1093
    105  NZ       112.0060   45.8510   44.8460 N.3   261  LYS261     -0.1314
@<TRIPOS>BOND
     1    79    78    2
     2    89    90    1
     3    80    78   am
     4    78    77    1
     5    92    91    2
     6    90    91    1
     7    90    93    1
     8    77    76    1
     9    30    28    1
    10    76    73    1
    11    83    84    2
    12    83    82    1
    13    93    94    1
    14    28    29    1
    15    28    27    1
    16    75    74    2
    17    36    37    1
    18    82    81    1
    19    82    85    1
    20    74    81   am
    21    74    73    1
    22    33    34    2
    23    33    32    1
    24    73    72    1
    25    87    86    2
    26    94    95    2
    27    94    96   am
    28    97    98    1
    29    52    49    1
    30    45    43   ar
    31    45    46   ar
    32    27    24    1
    33   100    99    2
    34    47    46    1
    35    43    41   ar
    36     1     2    1
    37    86    85    1
    38    86    88   am
    39    37    38    1
    40    37    40    1
    41    39    38    2
    42    72    63   am
    43    46    44   ar
    44    38    48   am
    45    32    31    1
    46    32    35    1
    47    99    98    1
    48    48    49    1
    49    31    25   am
    50    98   101    1
    51    41    40    1
    52    41    42   ar
    53    49    50    1
    54    25    26    2
    55    25    24    1
    56    44    42   ar
    57    24    23    1
    58    63    64    2
    59    63    62    1
    60     4     3    2
    61     2     3    1
    62     2     5    1
    63   101   102    1
    64    23    21   am
    65    62    61    1
    66    62    65    1
    67    50    51    2
    68    50    53   am
    69   102   103    1
    70     5     7    1
    71     5     6    1
    72   105   104    1
    73    21    22    2
    74    21    20    1
    75    53    54    1
    76   103   104    1
    77    56    55    2
    78    20    19    1
    79    65    66    1
    80    55    54    1
    81     8     9    1
    82    54    57    1
    83    11    10    2
    84    66    68   ar
    85    66    67   ar
    86    68    70   ar
    87    10     9    1
    88     9    12    1
    89    67    69   ar
    90    57    59    1
    91    57    58    1
    92    70    71   ar
    93    69    71   ar
    94    12    13    1
    95    15    13   ar
    96    15    17   ar
    97    58    60    1
    98    13    14   ar
    99    17    18   ar
   100    14    16   ar
   101    18    16   ar
