@<TRIPOS>MOLECULE
tmp/1by5A00.pdb
 196 192 0 0 0
SMALL
GASTEIGER

@<TRIPOS>ATOM
      1  N        104.2270   38.1480   19.2290 N.3    64  ARG64      -0.1245
      2  CA       105.3870   37.4500   19.7800 C.3    64  ARG64       0.1563
      3  C        105.1060   35.9660   19.8840 C.2    64  ARG64       0.2260
      4  O        105.8630   35.2270   20.5120 O.2    64  ARG64      -0.2867
      5  CB       105.7640   37.9640   21.1760 C.3    64  ARG64       0.0307
      6  CG       106.7950   39.0720   21.1870 C.3    64  ARG64       0.0489
      7  CD       108.1810   38.6360   20.7230 C.3    64  ARG64       0.2205
      8  NE       108.9180   39.8230   20.3010 N.pl3  64  ARG64      -0.0865
      9  CZ       110.2330   39.9990   20.3910 C.cat  64  ARG64       0.5346
     10  NH1      111.0180   39.0640   20.8950 N.pl3  64  ARG64       0.1354
     11  NH2      110.7640   41.1400   19.9930 N.pl3  64  ARG64       0.1354
     12  N        105.8410   40.3330   27.3410 N.3    70  TYR70      -0.1241
     13  CA       105.1060   41.5920   27.3960 C.3    70  TYR70       0.1605
     14  C        103.7080   41.4030   26.8530 C.2    70  TYR70       0.2264
     15  O        103.4710   40.5340   26.0080 O.2    70  TYR70      -0.2867
     16  CB       105.7910   42.6790   26.5550 C.3    70  TYR70       0.0534
     17  CG       107.1950   43.0230   26.9890 C.ar   70  TYR70      -0.0201
     18  CD1      107.4210   43.7700   28.1410 C.ar   70  TYR70      -0.0009
     19  CD2      108.3000   42.5810   26.2620 C.ar   70  TYR70      -0.0009
     20  CE1      108.7110   44.0690   28.5630 C.ar   70  TYR70       0.0417
     21  CE2      109.5950   42.8780   26.6760 C.ar   70  TYR70       0.0417
     22  CZ       109.7880   43.6240   27.8280 C.ar   70  TYR70       0.1957
     23  OH       111.0610   43.9360   28.2360 O.3    70  TYR70      -0.2866
     24  N        104.8050   53.4550   19.3710 N.3    81  GLU81      -0.1231
     25  CA       106.1270   53.5250   18.7530 C.3    81  GLU81       0.1699
     26  C        107.1820   52.8940   19.6530 C.2    81  GLU81       0.2593
     27  O        107.0670   52.9210   20.8790 O.2    81  GLU81      -0.2718
     28  CB       106.5200   54.9840   18.4900 C.3    81  GLU81       0.0402
     29  CG       107.9570   55.1660   17.9940 C.3    81  GLU81       0.1161
     30  CD       108.4520   56.6060   18.1030 C.2    81  GLU81       0.3649
     31  OE1      108.3870   57.1760   19.2140 O.co2  81  GLU81      -0.2457
     32  OE2      108.9120   57.1650   17.0820 O.co2  81  GLU81      -0.2457
     33  N        108.2100   52.3240   19.0360 N.am   82  GLY82      -0.1942
     34  CA       109.2900   51.7300   19.8010 C.3    82  GLY82       0.2014
     35  C        109.0630   50.3570   20.4090 C.2    82  GLY82       0.2638
     36  O        109.8790   49.9150   21.2230 O.2    82  GLY82      -0.2714
     37  N        107.9800   49.6820   20.0240 N.am   83  GLN83      -0.1977
     38  CA       107.6730   48.3460   20.5460 C.3    83  GLN83       0.1601
     39  C        107.2770   48.3730   22.0310 C.2    83  GLN83       0.2287
     40  O        107.6460   47.4840   22.7950 O.2    83  GLN83      -0.2864
     41  CB       108.8870   47.4210   20.3460 C.3    83  GLN83       0.0394
     42  CG       108.6260   45.9360   20.5800 C.3    83  GLN83       0.0908
     43  CD       107.6300   45.3610   19.5950 C.2    83  GLN83       0.2608
     44  OE1      107.6040   45.7520   18.4290 O.2    83  GLN83      -0.2717
     45  NE2      106.8150   44.4150   20.0530 N.am   83  GLN83      -0.0878
     46  N        111.5870   51.6610   26.9070 N.3    98  PHE98      -0.1227
     47  CA       112.5560   50.6990   26.3930 C.3    98  PHE98       0.1736
     48  C        112.1470   49.2520   26.7030 C.2    98  PHE98       0.2595
     49  O        111.2060   48.7400   26.0930 O.2    98  PHE98      -0.2718
     50  CB       113.9490   51.0060   26.9330 C.3    98  PHE98       0.0547
     51  CG       115.0390   50.7410   25.9350 C.ar   98  PHE98      -0.0202
     52  CD1      114.9640   51.2870   24.6570 C.ar   98  PHE98      -0.0042
     53  CD2      116.1200   49.9250   26.2550 C.ar   98  PHE98      -0.0042
     54  CE1      115.9470   51.0250   23.7100 C.ar   98  PHE98      -0.0003
     55  CE2      117.1100   49.6540   25.3180 C.ar   98  PHE98      -0.0003
     56  CZ       117.0260   50.2030   24.0410 C.ar   98  PHE98      -0.0000
     57  N        112.8410   48.5850   27.6200 N.am   99  TYR99      -0.1976
     58  CA       112.4920   47.2070   27.9670 C.3    99  TYR99       0.1639
     59  C        111.6940   47.1850   29.2540 C.2    99  TYR99       0.2290
     60  O        111.0800   46.1760   29.6130 O.2    99  TYR99      -0.2864
     61  CB       113.7430   46.3440   28.1590 C.3    99  TYR99       0.0560
     62  CG       114.4300   45.9250   26.8740 C.ar   99  TYR99      -0.0198
     63  CD1      113.8740   44.9410   26.0550 C.ar   99  TYR99      -0.0009
     64  CD2      115.6420   46.5050   26.4810 C.ar   99  TYR99      -0.0009
     65  CE1      114.4970   44.5400   24.8840 C.ar   99  TYR99       0.0417
     66  CE2      116.2790   46.1090   25.3100 C.ar   99  TYR99       0.0417
     67  CZ       115.7010   45.1230   24.5150 C.ar   99  TYR99       0.1957
     68  OH       116.3400   44.7050   23.3630 O.3    99  TYR99      -0.2866
     69  N        108.7610   47.5400   30.8950 N.3   101  ASP101     -0.1239
     70  CA       107.3160   47.5600   30.7230 C.3   101  ASP101      0.1674
     71  C        106.6880   46.6010   31.7370 C.2   101  ASP101      0.2266
     72  O        107.0290   45.4190   31.7750 O.2   101  ASP101     -0.2867
     73  CB       106.9590   47.1510   29.2800 C.3   101  ASP101      0.1410
     74  CG       106.4740   48.3280   28.4420 C.2   101  ASP101      0.3668
     75  OD1      105.9950   49.3190   29.0390 O.co2 101  ASP101     -0.2456
     76  OD2      106.5650   48.2650   27.1940 O.co2 101  ASP101     -0.2456
     77  N        112.2310   35.1600   24.3940 N.3   227  TYR227     -0.1241
     78  CA       111.9390   36.4260   23.7400 C.3   227  TYR227      0.1605
     79  C        112.9220   36.6220   22.5880 C.2   227  TYR227      0.2264
     80  O        113.4780   37.6940   22.4110 O.2   227  TYR227     -0.2867
     81  CB       112.0830   37.5470   24.7640 C.3   227  TYR227      0.0534
     82  CG       111.4690   38.8490   24.3490 C.ar  227  TYR227     -0.0201
     83  CD1      110.1160   38.9330   24.0310 C.ar  227  TYR227     -0.0009
     84  CD2      112.2380   40.0000   24.2770 C.ar  227  TYR227     -0.0009
     85  CE1      109.5450   40.1330   23.6530 C.ar  227  TYR227      0.0417
     86  CE2      111.6810   41.2050   23.8970 C.ar  227  TYR227      0.0417
     87  CZ       110.3370   41.2710   23.5900 C.ar  227  TYR227      0.1957
     88  OH       109.7830   42.4800   23.2530 O.3   227  TYR227     -0.2866
     89  N        114.2920   35.7910   18.3010 N.3   229  TRP229     -0.1241
     90  CA       113.8590   35.9170   16.9190 C.3   229  TRP229      0.1605
     91  C        114.2520   34.6890   16.1210 C.2   229  TRP229      0.2264
     92  O        115.3590   34.1700   16.2650 O.2   229  TRP229     -0.2867
     93  CB       114.5070   37.1300   16.2500 C.3   229  TRP229      0.0550
     94  CG       114.1540   38.4750   16.8190 C.ar  229  TRP229      0.0003
     95  CD1      113.2010   38.7580   17.7620 C.ar  229  TRP229      0.0946
     96  CD2      114.7370   39.7290   16.4520 C.ar  229  TRP229      0.0152
     97  NE1      113.1590   40.1120   18.0000 N.ar  229  TRP229     -0.2442
     98  CE2      114.0890   40.7310   17.2090 C.ar  229  TRP229      0.0810
     99  CE3      115.7460   40.1050   15.5520 C.ar  229  TRP229      0.0012
    100  CZ2      114.4190   42.0850   17.0960 C.ar  229  TRP229      0.0191
    101  CZ3      116.0720   41.4480   15.4410 C.ar  229  TRP229      0.0001
    102  CH2      115.4090   42.4230   16.2090 C.ar  229  TRP229      0.0015
    103  N        120.1280   36.7030   20.9020 N.3   296  TYR296     -0.1241
    104  CA       118.9500   36.4790   20.0690 C.3   296  TYR296      0.1605
    105  C        119.4180   36.3370   18.6420 C.2   296  TYR296      0.2264
    106  O        120.5010   36.7890   18.2940 O.2   296  TYR296     -0.2867
    107  CB       117.9590   37.6550   20.1870 C.3   296  TYR296      0.0534
    108  CG       118.5370   39.0080   19.8110 C.ar  296  TYR296     -0.0201
    109  CD1      119.3480   39.7110   20.7060 C.ar  296  TYR296     -0.0009
    110  CD2      118.2970   39.5720   18.5550 C.ar  296  TYR296     -0.0009
    111  CE1      119.9140   40.9410   20.3610 C.ar  296  TYR296      0.0417
    112  CE2      118.8570   40.8090   18.1960 C.ar  296  TYR296      0.0417
    113  CZ       119.6650   41.4840   19.1030 C.ar  296  TYR296      0.1957
    114  OH       120.2290   42.6900   18.7500 O.3   296  TYR296     -0.2866
    115  N        119.3780   36.8610   14.4780 N.3   298  TYR298     -0.1241
    116  CA       119.2330   38.0290   13.6250 C.3   298  TYR298      0.1605
    117  C        119.0440   37.5910   12.1800 C.2   298  TYR298      0.2264
    118  O        119.3370   38.3420   11.2560 O.2   298  TYR298     -0.2867
    119  CB       120.4440   38.9600   13.7320 C.3   298  TYR298      0.0534
    120  CG       120.0380   40.4120   13.6650 C.ar  298  TYR298     -0.0201
    121  CD1      119.5760   41.0800   14.8010 C.ar  298  TYR298     -0.0009
    122  CD2      120.0220   41.0960   12.4500 C.ar  298  TYR298     -0.0009
    123  CE1      119.1020   42.3930   14.7290 C.ar  298  TYR298      0.0417
    124  CE2      119.5460   42.4080   12.3630 C.ar  298  TYR298      0.0417
    125  CZ       119.0850   43.0490   13.5040 C.ar  298  TYR298      0.1957
    126  OH       118.5790   44.3280   13.4120 O.3   298  TYR298     -0.2866
    127  N        122.3970   41.4000   23.9200 N.3   329  VAL329     -0.1245
    128  CA       122.0790   42.6390   24.5990 C.3   329  VAL329      0.1561
    129  C        122.1140   42.3800   26.1000 C.2   329  VAL329      0.2260
    130  O        121.5640   41.3930   26.5860 O.2   329  VAL329     -0.2867
    131  CB       120.6710   43.1560   24.2070 C.3   329  VAL329      0.0252
    132  CG1      119.6530   42.0370   24.3210 C.3   329  VAL329      0.0019
    133  CG2      120.2640   44.3150   25.1150 C.3   329  VAL329      0.0019
    134  N        125.1600   46.6410   23.8520 N.3   374  PHE374     -0.1241
    135  CA       124.6720   45.9480   22.6640 C.3   374  PHE374      0.1605
    136  C        125.7650   45.3350   21.7940 C.2   374  PHE374      0.2264
    137  O        126.7500   45.9940   21.4630 O.2   374  PHE374     -0.2867
    138  CB       123.8540   46.9010   21.7830 C.3   374  PHE374      0.0534
    139  CG       122.4510   47.1300   22.2610 C.ar  374  PHE374     -0.0203
    140  CD1      122.1820   48.0460   23.2740 C.ar  374  PHE374     -0.0042
    141  CD2      121.3920   46.4310   21.6870 C.ar  374  PHE374     -0.0042
    142  CE1      120.8810   48.2630   23.7070 C.ar  374  PHE374     -0.0003
    143  CE2      120.0910   46.6410   22.1140 C.ar  374  PHE374     -0.0003
    144  CZ       119.8340   47.5610   23.1290 C.ar  374  PHE374     -0.0000
    145  N        112.2020   60.2120   18.2720 N.3   488  GLN488     -0.1245
    146  CA       113.2110   60.1430   17.2180 C.3   488  GLN488      0.1566
    147  C        113.7650   61.5220   16.9020 C.2   488  GLN488      0.2260
    148  O        113.0470   62.5190   16.9770 O.2   488  GLN488     -0.2867
    149  CB       112.5890   59.5670   15.9480 C.3   488  GLN488      0.0367
    150  CG       111.9160   58.2360   16.1510 C.3   488  GLN488      0.0905
    151  CD       112.9110   57.1410   16.3940 C.2   488  GLN488      0.2608
    152  OE1      113.6500   56.7520   15.4880 O.2   488  GLN488     -0.2717
    153  NE2      112.9530   56.6400   17.6210 N.am  488  GLN488     -0.0878
    154  N        102.4470   42.0680   10.6020 N.3   591  GLN591     -0.1245
    155  CA       101.7830   41.5390   11.7930 C.3   591  GLN591      0.1566
    156  C        100.3210   41.9480   11.9160 C.2   591  GLN591      0.2260
    157  O         99.6830   41.7070   12.9420 O.2   591  GLN591     -0.2867
    158  CB       102.5500   41.9510   13.0540 C.3   591  GLN591      0.0367
    159  CG       103.9540   41.3850   13.1050 C.3   591  GLN591      0.0905
    160  CD       104.6720   41.7000   14.3930 C.2   591  GLN591      0.2608
    161  OE1      104.9070   42.8570   14.7130 O.2   591  GLN591     -0.2717
    162  NE2      105.0270   40.6660   15.1410 N.am  591  GLN591     -0.0878
    163  N        107.7160   40.2290   12.0960 N.3   676  PHE676     -0.1241
    164  CA       107.7290   41.6740   11.9210 C.3   676  PHE676      0.1605
    165  C        108.7510   42.0100   10.8330 C.2   676  PHE676      0.2264
    166  O        108.8860   43.1590   10.4010 O.2   676  PHE676     -0.2867
    167  CB       108.0470   42.3710   13.2540 C.3   676  PHE676      0.0534
    168  CG       109.4760   42.2540   13.6870 C.ar  676  PHE676     -0.0203
    169  CD1      110.4310   43.1550   13.2280 C.ar  676  PHE676     -0.0042
    170  CD2      109.8710   41.2370   14.5520 C.ar  676  PHE676     -0.0042
    171  CE1      111.7570   43.0490   13.6220 C.ar  676  PHE676     -0.0003
    172  CE2      111.1960   41.1150   14.9570 C.ar  676  PHE676     -0.0003
    173  CZ       112.1450   42.0230   14.4910 C.ar  676  PHE676     -0.0000
    174  N        113.6840   38.2770    9.3810 N.3   679  TYR679     -0.1241
    175  CA       114.5150   37.6830   10.4190 C.3   679  TYR679      0.1605
    176  C        113.8660   37.7250   11.8020 C.2   679  TYR679      0.2264
    177  O        114.5310   37.4670   12.8100 O.2   679  TYR679     -0.2867
    178  CB       115.8600   38.4080   10.4500 C.3   679  TYR679      0.0534
    179  CG       115.7250   39.8980   10.6280 C.ar  679  TYR679     -0.0201
    180  CD1      115.5410   40.4530   11.8960 C.ar  679  TYR679     -0.0009
    181  CD2      115.7520   40.7580    9.5260 C.ar  679  TYR679     -0.0009
    182  CE1      115.3910   41.8270   12.0690 C.ar  679  TYR679      0.0417
    183  CE2      115.5980   42.1360    9.6860 C.ar  679  TYR679      0.0417
    184  CZ       115.4190   42.6630   10.9610 C.ar  679  TYR679      0.1957
    185  OH       115.2730   44.0210   11.1340 O.3   679  TYR679     -0.2866
    186  N        107.8740   34.2030   14.8670 N.3   682  PHE682     -0.1241
    187  CA       107.5770   33.5280   16.1280 C.3   682  PHE682      0.1605
    188  C        106.6200   32.3580   15.9970 C.2   682  PHE682      0.2264
    189  O        105.5520   32.4860   15.4050 O.2   682  PHE682     -0.2867
    190  CB       106.9970   34.5380   17.1230 C.3   682  PHE682      0.0534
    191  CG       107.6750   35.8690   17.0770 C.ar  682  PHE682     -0.0203
    192  CD1      108.9180   36.0480   17.6800 C.ar  682  PHE682     -0.0042
    193  CD2      107.1150   36.9260   16.3640 C.ar  682  PHE682     -0.0042
    194  CE1      109.5940   37.2560   17.5700 C.ar  682  PHE682     -0.0003
    195  CE2      107.7870   38.1410   16.2500 C.ar  682  PHE682     -0.0003
    196  CZ       109.0300   38.3060   16.8510 C.ar  682  PHE682     -0.0000
@<TRIPOS>BOND
     1   174   175    1
     2   181   183   ar
     3   181   179   ar
     4   183   184   ar
     5   166   165    2
     6   175   178    1
     7   175   176    1
     8   178   179    1
     9   154   155    1
    10   179   180   ar
    11   165   164    1
    12   184   185    1
    13   184   182   ar
    14   118   117    2
    15   155   156    1
    16   155   158    1
    17   176   177    2
    18   180   182   ar
    19   156   157    2
    20   164   163    1
    21   164   167    1
    22   117   116    1
    23   124   122   ar
    24   124   125   ar
    25   122   120   ar
    26   158   159    1
    27   159   160    1
    28   169   171   ar
    29   169   168   ar
    30   167   168    1
    31   126   125    1
    32   125   123   ar
    33   171   173   ar
    34   116   119    1
    35   116   115    1
    36   120   119    1
    37   120   121   ar
    38   168   170   ar
    39   160   161    2
    40   160   162   am
    41   173   172   ar
    42   170   172   ar
    43   123   121   ar
    44   186   187    1
    45   189   188    2
    46   101    99   ar
    47   101   102   ar
    48   152   151    2
    49    99    96   ar
    50   149   150    1
    51   149   146    1
    52   188   187    1
    53    91    92    2
    54    91    90    1
    55   187   190    1
    56   150   151    1
    57   102   100   ar
    58   195   193   ar
    59   195   196   ar
    60    93    94    1
    61    93    90    1
    62   193   191   ar
    63   151   153   am
    64    96    94   ar
    65    96    98   ar
    66    94    95   ar
    67   196   194   ar
    68   147   148    2
    69   147   146    1
    70    90    89    1
    71   191   190    1
    72   191   192   ar
    73    32    30   ar
    74   100    98   ar
    75    98    97   ar
    76   146   145    1
    77   194   192   ar
    78    95    97   ar
    79    29    30    1
    80    29    28    1
    81    30    31   ar
    82   112   110   ar
    83   112   113   ar
    84   106   105    2
    85    44    43    2
    86    28    25    1
    87   110   108   ar
    88   105   104    1
    89   114   113    1
    90    25    24    1
    91    25    26    1
    92    33    26   am
    93    33    34    1
    94   113   111   ar
    95     1     2    1
    96    43    45   am
    97    43    42    1
    98    26    27    2
    99     2     3    1
   100     2     5    1
   101    34    35    1
   102   108   107    1
   103   108   109   ar
   104     3     4    2
   105    11     9    1
   106    37    35   am
   107    37    38    1
   108   104   107    1
   109   104   103    1
   110     8     9    2
   111     8     7    1
   112    41    38    1
   113    41    42    1
   114   111   109   ar
   115     9    10    1
   116    35    36    2
   117    38    39    1
   118     7     6    1
   119     5     6    1
   120   137   136    2
   121   141   143   ar
   122   141   139   ar
   123   138   139    1
   124   138   135    1
   125   136   135    1
   126    39    40    2
   127   143   144   ar
   128   139   140   ar
   129    80    79    2
   130    79    78    1
   131   135   134    1
   132   144   142   ar
   133    88    87    1
   134   140   142   ar
   135    68    67    1
   136    87    85   ar
   137    87    86   ar
   138    85    83   ar
   139    54    56   ar
   140    54    52   ar
   141    78    77    1
   142    78    81    1
   143    86    84   ar
   144   127   128    1
   145    83    82   ar
   146    56    55   ar
   147   131   132    1
   148   131   128    1
   149   131   133    1
   150    84    82   ar
   151    82    81    1
   152    67    65   ar
   153    67    66   ar
   154   128   129    1
   155    52    51   ar
   156    65    63   ar
   157    66    64   ar
   158    55    53   ar
   159    51    53   ar
   160    51    50    1
   161    15    14    2
   162    63    62   ar
   163    49    48    2
   164   129   130    2
   165    19    21   ar
   166    19    17   ar
   167    47    48    1
   168    47    46    1
   169    47    50    1
   170    64    62   ar
   171    16    17    1
   172    16    13    1
   173    21    22   ar
   174    48    57   am
   175    14    13    1
   176    62    61    1
   177    17    18   ar
   178    76    74   ar
   179    12    13    1
   180    57    58    1
   181    22    23    1
   182    22    20   ar
   183    58    61    1
   184    58    59    1
   185    18    20   ar
   186    74    75   ar
   187    74    73    1
   188    59    60    2
   189    73    70    1
   190    70    69    1
   191    70    71    1
   192    71    72    2
