@<TRIPOS>MOLECULE
tmp/1by5A01.pdb
 90 87 0 0 0
SMALL
GASTEIGER

@<TRIPOS>ATOM
      1  N         94.6630   25.5350   42.6940 N.3   149  PHE149     -0.1241
      2  CA        95.8290   24.7400   42.3290 C.3   149  PHE149      0.1605
      3  C         95.8160   24.4710   40.8260 C.2   149  PHE149      0.2264
      4  O         94.7730   24.1400   40.2510 O.2   149  PHE149     -0.2867
      5  CB        95.8240   23.4130   43.0960 C.3   149  PHE149      0.0534
      6  CG        95.9740   23.5690   44.5850 C.ar  149  PHE149     -0.0203
      7  CD1       97.1160   24.1640   45.1280 C.ar  149  PHE149     -0.0042
      8  CD2       94.9830   23.1140   45.4500 C.ar  149  PHE149     -0.0042
      9  CE1       97.2660   24.3080   46.5150 C.ar  149  PHE149     -0.0003
     10  CE2       95.1210   23.2510   46.8390 C.ar  149  PHE149     -0.0003
     11  CZ        96.2670   23.8490   47.3730 C.ar  149  PHE149     -0.0000
     12  N        103.2230   24.6530   37.0590 N.3   157  PHE157     -0.1227
     13  CA       102.6710   24.4540   38.3910 C.3   157  PHE157      0.1736
     14  C        102.3210   25.8250   38.9330 C.2   157  PHE157      0.2595
     15  O        103.1160   26.7640   38.8550 O.2   157  PHE157     -0.2718
     16  CB       103.6630   23.7660   39.3380 C.3   157  PHE157      0.0547
     17  CG       103.9080   22.3260   39.0160 C.ar  157  PHE157     -0.0202
     18  CD1      103.0740   21.3350   39.5370 C.ar  157  PHE157     -0.0042
     19  CD2      104.9460   21.9550   38.1640 C.ar  157  PHE157     -0.0042
     20  CE1      103.2700   19.9940   39.2160 C.ar  157  PHE157     -0.0003
     21  CE2      105.1500   20.6120   37.8370 C.ar  157  PHE157     -0.0003
     22  CZ       104.3090   19.6320   38.3620 C.ar  157  PHE157     -0.0000
     23  N        101.1120   25.9400   39.4580 N.am  158  GLN158     -0.1965
     24  CA       100.6570   27.1960   40.0030 C.3   158  GLN158      0.1733
     25  C         99.7410   26.9820   41.1770 C.2   158  GLN158      0.2617
     26  O         98.9070   26.0720   41.1960 O.2   158  GLN158     -0.2715
     27  CB        99.9130   28.0230   38.9470 C.3   158  GLN158      0.0408
     28  CG        99.4130   29.3630   39.4620 C.3   158  GLN158      0.0908
     29  CD        98.8600   30.2260   38.3560 C.2   158  GLN158      0.2608
     30  OE1       99.2400   30.0770   37.1870 O.2   158  GLN158     -0.2717
     31  NE2       97.9730   31.1500   38.7110 N.am  158  GLN158     -0.0878
     32  N         99.9080   27.8530   42.1550 N.am  159  THR159     -0.1951
     33  CA        99.1030   27.8340   43.3440 C.3   159  THR159      0.1897
     34  C         98.7710   29.3070   43.5690 C.2   159  THR159      0.2313
     35  O         99.6310   30.1820   43.4380 O.2   159  THR159     -0.2863
     36  CB        99.8920   27.2500   44.5340 C.3   159  THR159      0.1794
     37  OG1       99.0540   27.2100   45.6960 O.3   159  THR159     -0.2208
     38  CG2      101.0940   28.1050   44.8360 C.3   159  THR159      0.0378
     39  N        101.9540   31.8790   42.8180 N.3   181  ALA181     -0.1231
     40  CA       103.3320   31.4890   42.5870 C.3   181  ALA181      0.1694
     41  C        103.2140   30.5340   41.4230 C.2   181  ALA181      0.2592
     42  O        102.4080   29.6040   41.4600 O.2   181  ALA181     -0.2718
     43  CB       103.9070   30.7750   43.8080 C.3   181  ALA181      0.0304
     44  N        104.0000   30.7680   40.3840 N.am  182  ARG182     -0.1966
     45  CA       103.9330   29.9270   39.2070 C.3   182  ARG182      0.1729
     46  C        105.3040   29.6370   38.6700 C.2   182  ARG182      0.2616
     47  O        106.1330   30.5310   38.5240 O.2   182  ARG182     -0.2715
     48  CB       103.0930   30.6080   38.1170 C.3   182  ARG182      0.0348
     49  CG       103.0740   29.8790   36.7720 C.3   182  ARG182      0.0492
     50  CD       101.9700   30.4360   35.8730 C.3   182  ARG182      0.2205
     51  NE       102.2620   31.7860   35.3960 N.pl3 182  ARG182     -0.0865
     52  CZ       101.3510   32.7430   35.2250 C.cat 182  ARG182      0.5346
     53  NH1      100.0700   32.5230   35.4970 N.pl3 182  ARG182      0.1354
     54  NH2      101.7220   33.9240   34.7620 N.pl3 182  ARG182      0.1354
     55  N        105.5270   28.3720   38.3620 N.am  183  SER183     -0.1950
     56  CA       106.7890   27.9210   37.8040 C.3   183  SER183      0.1924
     57  C        106.3940   27.1010   36.5940 C.2   183  SER183      0.2314
     58  O        105.4080   26.3720   36.6400 O.2   183  SER183     -0.2863
     59  CB       107.5220   27.0360   38.8120 C.3   183  SER183      0.2116
     60  OG       108.7040   26.5050   38.2590 O.3   183  SER183     -0.2180
     61  N        112.6630   29.0600   30.9560 N.3   192  GLU192     -0.1245
     62  CA       111.6930   28.8280   32.0160 C.3   192  GLU192      0.1567
     63  C        110.9590   30.1120   32.3850 C.2   192  GLU192      0.2260
     64  O        111.4240   31.2120   32.0890 O.2   192  GLU192     -0.2867
     65  CB       112.3890   28.2500   33.2500 C.3   192  GLU192      0.0388
     66  CG       113.6780   28.9570   33.6140 C.3   192  GLU192      0.1160
     67  CD       114.2330   28.5050   34.9480 C.2   192  GLU192      0.3649
     68  OE1      113.5820   28.7720   35.9790 O.co2 192  GLU192     -0.2457
     69  OE2      115.3140   27.8830   34.9640 O.co2 192  GLU192     -0.2457
     70  N        108.8580   32.0180   35.6770 N.3   194  GLN194     -0.1245
     71  CA       108.5920   32.0460   37.1090 C.3   194  GLN194      0.1566
     72  C        107.9750   33.3790   37.4790 C.2   194  GLN194      0.2260
     73  O        108.4390   34.4340   37.0420 O.2   194  GLN194     -0.2867
     74  CB       109.8820   31.8660   37.9060 C.3   194  GLN194      0.0367
     75  CG       110.4990   30.4920   37.8010 C.3   194  GLN194      0.0905
     76  CD       111.6670   30.3300   38.7400 C.2   194  GLN194      0.2608
     77  OE1      111.5090   30.3680   39.9640 O.2   194  GLN194     -0.2717
     78  NE2      112.8560   30.1610   38.1760 N.am  194  GLN194     -0.0878
     79  N        105.9440   35.4100   40.9410 N.3   196  TYR196     -0.1241
     80  CA       105.4680   35.4180   42.3150 C.3   196  TYR196      0.1605
     81  C        104.8430   36.7860   42.4690 C.2   196  TYR196      0.2264
     82  O        105.5160   37.7960   42.3120 O.2   196  TYR196     -0.2867
     83  CB       106.6290   35.2120   43.2950 C.3   196  TYR196      0.0534
     84  CG       107.4390   33.9780   42.9660 C.ar  196  TYR196     -0.0201
     85  CD1      106.9840   32.7070   43.3280 C.ar  196  TYR196     -0.0009
     86  CD2      108.6170   34.0730   42.2250 C.ar  196  TYR196     -0.0009
     87  CE1      107.6830   31.5630   42.9570 C.ar  196  TYR196      0.0417
     88  CE2      109.3260   32.9350   41.8500 C.ar  196  TYR196      0.0417
     89  CZ       108.8530   31.6870   42.2200 C.ar  196  TYR196      0.1957
     90  OH       109.5610   30.5630   41.8640 O.3   196  TYR196     -0.2866
@<TRIPOS>BOND
     1    61    62    1
     2    62    63    1
     3    62    65    1
     4    64    63    2
     5    65    66    1
     6    66    67    1
     7    54    52    1
     8    67    69   ar
     9    67    68   ar
    10    52    51    2
    11    52    53    1
    12    51    50    1
    13    70    71    1
    14    50    49    1
    15    57    58    2
    16    57    56    1
    17    49    48    1
    18    73    72    2
    19    12    13    1
    20    71    72    1
    21    71    74    1
    22    30    29    2
    23    75    74    1
    24    75    76    1
    25    56    55    1
    26    56    59    1
    27    21    19   ar
    28    21    22   ar
    29    48    45    1
    30    19    17   ar
    31    78    76   am
    32    60    59    1
    33    29    31   am
    34    29    28    1
    35    22    20   ar
    36    55    46   am
    37    13    14    1
    38    13    16    1
    39    47    46    2
    40    46    45    1
    41    76    77    2
    42    15    14    2
    43    14    23   am
    44    27    28    1
    45    27    24    1
    46    17    16    1
    47    17    18   ar
    48    45    44    1
    49    20    18   ar
    50    23    24    1
    51    24    25    1
    52     4     3    2
    53    44    41   am
    54     3     2    1
    55    79    80    1
    56    25    26    2
    57    25    32   am
    58    41    42    2
    59    41    40    1
    60    88    89   ar
    61    88    86   ar
    62    90    89    1
    63    32    33    1
    64    89    87   ar
    65    86    84   ar
    66    82    81    2
    67    80    81    1
    68    80    83    1
    69     2     1    1
    70     2     5    1
    71    40    39    1
    72    40    43    1
    73    87    85   ar
    74    84    83    1
    75    84    85   ar
    76     5     6    1
    77    33    34    1
    78    33    36    1
    79    35    34    2
    80    36    38    1
    81    36    37    1
    82     6     7   ar
    83     6     8   ar
    84     7     9   ar
    85     8    10   ar
    86     9    11   ar
    87    10    11   ar
