@<TRIPOS>MOLECULE
tmp/1by5A05.pdb
 85 83 0 0 0
SMALL
GASTEIGER

@<TRIPOS>ATOM
      1  N         94.6630   25.5350   42.6940 N.3   149  PHE149     -0.1227
      2  CA        95.8290   24.7400   42.3290 C.3   149  PHE149      0.1736
      3  C         95.8160   24.4710   40.8260 C.2   149  PHE149      0.2595
      4  O         94.7730   24.1400   40.2510 O.2   149  PHE149     -0.2718
      5  CB        95.8240   23.4130   43.0960 C.3   149  PHE149      0.0547
      6  CG        95.9740   23.5690   44.5850 C.ar  149  PHE149     -0.0202
      7  CD1       97.1160   24.1640   45.1280 C.ar  149  PHE149     -0.0042
      8  CD2       94.9830   23.1140   45.4500 C.ar  149  PHE149     -0.0042
      9  CE1       97.2660   24.3080   46.5150 C.ar  149  PHE149     -0.0003
     10  CE2       95.1210   23.2510   46.8390 C.ar  149  PHE149     -0.0003
     11  CZ        96.2670   23.8490   47.3730 C.ar  149  PHE149     -0.0000
     12  N         96.9710   24.6300   40.1890 N.am  150  LYS150     -0.1966
     13  CA        97.0900   24.3860   38.7540 C.3   150  LYS150      0.1728
     14  C         98.2740   23.4850   38.4420 C.2   150  LYS150      0.2616
     15  O         99.3170   23.5640   39.0820 O.2   150  LYS150     -0.2715
     16  CB        97.2980   25.6870   37.9770 C.3   150  LYS150      0.0311
     17  CG        96.1440   26.6590   37.9450 C.3   150  LYS150      0.0038
     18  CD        96.4210   27.6900   36.8500 C.3   150  LYS150      0.0206
     19  CE        95.6370   28.9720   37.0440 C.3   150  LYS150      0.1093
     20  NZ        95.9990   29.9700   35.9950 N.3   150  LYS150     -0.1314
     21  N         98.1030   22.6430   37.4360 N.am  151  ALA151     -0.1977
     22  CA        99.1510   21.7510   36.9870 C.3   151  ALA151      0.1597
     23  C         98.8710   21.4620   35.5200 C.2   151  ALA151      0.2287
     24  O         97.7620   21.0730   35.1630 O.2   151  ALA151     -0.2864
     25  CB        99.1310   20.4800   37.7920 C.3   151  ALA151      0.0319
     26  N        103.2230   24.6530   37.0590 N.3   157  PHE157     -0.1227
     27  CA       102.6710   24.4540   38.3910 C.3   157  PHE157      0.1736
     28  C        102.3210   25.8250   38.9330 C.2   157  PHE157      0.2595
     29  O        103.1160   26.7640   38.8550 O.2   157  PHE157     -0.2718
     30  CB       103.6630   23.7660   39.3380 C.3   157  PHE157      0.0547
     31  CG       103.9080   22.3260   39.0160 C.ar  157  PHE157     -0.0202
     32  CD1      103.0740   21.3350   39.5370 C.ar  157  PHE157     -0.0042
     33  CD2      104.9460   21.9550   38.1640 C.ar  157  PHE157     -0.0042
     34  CE1      103.2700   19.9940   39.2160 C.ar  157  PHE157     -0.0003
     35  CE2      105.1500   20.6120   37.8370 C.ar  157  PHE157     -0.0003
     36  CZ       104.3090   19.6320   38.3620 C.ar  157  PHE157     -0.0000
     37  N        101.1120   25.9400   39.4580 N.am  158  GLN158     -0.1979
     38  CA       100.6570   27.1960   40.0030 C.3   158  GLN158      0.1601
     39  C         99.7410   26.9820   41.1770 C.2   158  GLN158      0.2287
     40  O         98.9070   26.0720   41.1960 O.2   158  GLN158     -0.2864
     41  CB        99.9130   28.0230   38.9470 C.3   158  GLN158      0.0394
     42  CG        99.4130   29.3630   39.4620 C.3   158  GLN158      0.0908
     43  CD        98.8600   30.2260   38.3560 C.2   158  GLN158      0.2608
     44  OE1       99.2400   30.0770   37.1870 O.2   158  GLN158     -0.2717
     45  NE2       97.9730   31.1500   38.7110 N.am  158  GLN158     -0.0878
     46  N         86.6460   21.6030   39.7040 N.3   659  VAL659     -0.1231
     47  CA        87.8370   21.0020   39.1240 C.3   659  VAL659      0.1692
     48  C         87.6230   21.1120   37.6310 C.2   659  VAL659      0.2591
     49  O         86.5110   20.9110   37.1530 O.2   659  VAL659     -0.2718
     50  CB        87.9530   19.5140   39.5140 C.3   659  VAL659      0.0266
     51  CG1       88.8580   18.7930   38.5450 C.3   659  VAL659      0.0020
     52  CG2       88.5070   19.3890   40.9300 C.3   659  VAL659      0.0020
     53  N         88.6690   21.4300   36.8810 N.am  660  ALA660     -0.1980
     54  CA        88.4970   21.5730   35.4490 C.3   660  ALA660      0.1597
     55  C         89.7070   21.1620   34.6390 C.2   660  ALA660      0.2287
     56  O         90.8050   20.9870   35.1620 O.2   660  ALA660     -0.2864
     57  CB        88.1190   23.0090   35.1160 C.3   660  ALA660      0.0319
     58  N         95.2320   21.5440   34.2940 N.3   691  ALA691     -0.1231
     59  CA        94.3040   20.9490   35.2430 C.3   691  ALA691      0.1694
     60  C         94.1600   21.9770   36.3580 C.2   691  ALA691      0.2593
     61  O         95.1500   22.4240   36.9400 O.2   691  ALA691     -0.2718
     62  CB        94.8650   19.6390   35.7920 C.3   691  ALA691      0.0304
     63  N         92.9240   22.3600   36.6410 N.am  692  THR692     -0.1939
     64  CA        92.6600   23.3500   37.6680 C.3   692  THR692      0.2028
     65  C         91.7260   22.8810   38.7690 C.2   692  THR692      0.2642
     66  O         90.7220   22.2130   38.5240 O.2   692  THR692     -0.2714
     67  CB        92.0720   24.6290   37.0500 C.3   692  THR692      0.1808
     68  OG1       93.0990   25.3140   36.3260 O.3   692  THR692     -0.2208
     69  CG2       91.5230   25.5480   38.1310 C.3   692  THR692      0.0379
     70  N         92.0750   23.2380   39.9950 N.am  693  ALA693     -0.1977
     71  CA        91.2540   22.8990   41.1390 C.3   693  ALA693      0.1597
     72  C         91.1500   24.1630   41.9670 C.2   693  ALA693      0.2287
     73  O         92.1280   24.5870   42.5870 O.2   693  ALA693     -0.2864
     74  CB        91.8970   21.8020   41.9490 C.3   693  ALA693      0.0319
     75  N         89.2700   25.8140   45.0930 N.3   695  PHE695     -0.1241
     76  CA        88.4430   25.5380   46.2560 C.3   695  PHE695      0.1605
     77  C         88.0920   26.8070   47.0030 C.2   695  PHE695      0.2264
     78  O         88.9500   27.6680   47.2170 O.2   695  PHE695     -0.2867
     79  CB        89.1700   24.6030   47.2250 C.3   695  PHE695      0.0534
     80  CG        89.6470   23.3310   46.6060 C.ar  695  PHE695     -0.0203
     81  CD1       88.7490   22.3200   46.2880 C.ar  695  PHE695     -0.0042
     82  CD2       90.9960   23.1350   46.3470 C.ar  695  PHE695     -0.0042
     83  CE1       89.1890   21.1230   45.7210 C.ar  695  PHE695     -0.0003
     84  CE2       91.4420   21.9440   45.7830 C.ar  695  PHE695     -0.0003
     85  CZ        90.5310   20.9350   45.4690 C.ar  695  PHE695     -0.0000
@<TRIPOS>BOND
     1    58    59    1
     2    55    56    2
     3    55    54    1
     4    57    54    1
     5    24    23    2
     6    59    62    1
     7    59    60    1
     8    54    53    1
     9    23    22    1
    10    20    19    1
    11    68    67    1
    12    60    63   am
    13    60    61    2
    14    63    64    1
    15    18    19    1
    16    18    17    1
    17    53    48   am
    18    22    21    1
    19    22    25    1
    20    67    64    1
    21    67    69    1
    22    26    27    1
    23    49    48    2
    24    44    43    2
    25    21    14   am
    26    48    47    1
    27    64    65    1
    28    35    33   ar
    29    35    36   ar
    30    17    16    1
    31    16    13    1
    32    33    31   ar
    33    43    45   am
    34    43    42    1
    35    36    34   ar
    36    27    28    1
    37    27    30    1
    38    14    13    1
    39    14    15    2
    40    66    65    2
    41    51    50    1
    42    13    12    1
    43    65    70   am
    44    29    28    2
    45    28    37   am
    46    41    42    1
    47    41    38    1
    48    31    30    1
    49    31    32   ar
    50    47    50    1
    51    47    46    1
    52    34    32   ar
    53    37    38    1
    54    50    52    1
    55    70    71    1
    56    38    39    1
    57    12     3   am
    58     4     3    2
    59     3     2    1
    60    71    74    1
    61    71    72    1
    62    39    40    2
    63    72    73    2
    64     2     1    1
    65     2     5    1
    66     5     6    1
    67     6     7   ar
    68     6     8   ar
    69    75    76    1
    70     7     9   ar
    71     8    10   ar
    72    85    83   ar
    73    85    84   ar
    74    83    81   ar
    75    84    82   ar
    76    76    77    1
    77    76    79    1
    78    81    80   ar
    79    82    80   ar
    80     9    11   ar
    81    80    79    1
    82    10    11   ar
    83    77    78    2
