@<TRIPOS>MOLECULE
tmp/1bybA01.pdb
 112 106 0 0 0
SMALL
GASTEIGER

@<TRIPOS>ATOM
      1  N          2.3810   23.0240   25.9470 N.3    94  ASN94      -0.1225
      2  CA         1.8840   24.1870   26.5720 C.3    94  ASN94       0.1785
      3  C          0.4180   24.3270   26.3340 C.2    94  ASN94       0.2597
      4  O         -0.1620   23.6360   25.5250 O.2    94  ASN94      -0.2718
      5  CB         2.6940   25.3880   26.1560 C.3    94  ASN94       0.1169
      6  CG         4.1190   25.2260   26.6730 C.2    94  ASN94       0.2627
      7  OD1        4.3680   25.0870   27.9020 O.2    94  ASN94      -0.2716
      8  ND2        5.0790   25.3050   25.7610 N.am   94  ASN94      -0.0877
      9  N         -0.1990   25.1760   27.1040 N.am   95  VAL95      -0.1980
     10  CA        -1.6210   25.3400   27.0540 C.3    95  VAL95       0.1595
     11  C         -2.0490   25.6530   25.6200 C.2    95  VAL95       0.2287
     12  O         -1.4880   26.5380   24.9890 O.2    95  VAL95      -0.2864
     13  CB        -2.0710   26.4150   28.1000 C.3    95  VAL95       0.0276
     14  CG1       -1.4160   27.7560   27.8270 C.3    95  VAL95       0.0022
     15  CG2       -3.5940   26.6010   28.1700 C.3    95  VAL95       0.0022
     16  N          7.4070   28.2910   24.2530 N.3   180  ALA180     -0.1245
     17  CA         6.3170   29.0890   23.7350 C.3   180  ALA180      0.1562
     18  C          6.7780   30.3220   23.0130 C.2   180  ALA180      0.2260
     19  O          5.9550   31.2250   22.8150 O.2   180  ALA180     -0.2867
     20  CB         5.2600   29.4540   24.7710 C.3   180  ALA180      0.0290
     21  N          8.7440   32.5020   24.2970 N.3   182  GLU182     -0.1245
     22  CA         8.9070   33.5360   25.3180 C.3   182  GLU182      0.1567
     23  C         10.2820   33.5410   25.9520 C.2   182  GLU182      0.2260
     24  O         10.8880   32.4880   26.2010 O.2   182  GLU182     -0.2867
     25  CB         7.8200   33.3740   26.4120 C.3   182  GLU182      0.0388
     26  CG         6.4270   33.7910   25.8640 C.3   182  GLU182      0.1160
     27  CD         5.2610   33.1870   26.6060 C.2   182  GLU182      0.3649
     28  OE1        5.3470   32.1480   27.2240 O.co2 182  GLU182     -0.2457
     29  OE2        4.1950   33.9210   26.5480 O.co2 182  GLU182     -0.2457
     30  N         11.9720   33.1800   28.8330 N.3   184  ARG184     -0.1245
     31  CA        11.6840   32.7010   30.2000 C.3   184  ARG184      0.1563
     32  C         12.1630   31.2750   30.2970 C.2   184  ARG184      0.2260
     33  O         12.5710   30.7330   29.2770 O.2   184  ARG184     -0.2867
     34  CB        10.1870   32.7120   30.4290 C.3   184  ARG184      0.0307
     35  CG         9.4270   31.6500   29.6250 C.3   184  ARG184      0.0489
     36  CD         7.9270   31.8200   29.8330 C.3   184  ARG184      0.2205
     37  NE         7.0910   30.8300   29.1490 N.pl3 184  ARG184     -0.0865
     38  CZ         6.9970   29.5130   29.3960 C.cat 184  ARG184      0.5346
     39  NH1        7.6970   28.8680   30.3330 N.pl3 184  ARG184      0.1354
     40  NH2        6.1250   28.8020   28.6800 N.pl3 184  ARG184      0.1354
     41  N          6.9810   26.1730   34.4080 N.3   188  TYR188     -0.1241
     42  CA         5.6580   25.6320   34.6010 C.3   188  TYR188      0.1605
     43  C          5.2750   24.7000   33.4780 C.2   188  TYR188      0.2264
     44  O          4.3620   25.0020   32.7360 O.2   188  TYR188     -0.2867
     45  CB         4.6030   26.7110   34.8440 C.3   188  TYR188      0.0534
     46  CG         4.6470   27.8990   33.8550 C.ar  188  TYR188     -0.0201
     47  CD1        5.6050   28.9050   33.9630 C.ar  188  TYR188     -0.0009
     48  CD2        3.6800   28.0330   32.8520 C.ar  188  TYR188     -0.0009
     49  CE1        5.6200   29.9720   33.0680 C.ar  188  TYR188      0.0417
     50  CE2        3.6940   29.0700   31.9130 C.ar  188  TYR188      0.0417
     51  CZ         4.6490   30.0730   32.0660 C.ar  188  TYR188      0.1957
     52  OH         4.6680   31.1450   31.2080 O.3   188  TYR188     -0.2866
     53  N          6.3520   36.6040   28.9860 N.3   293  SER293     -0.1202
     54  CA         5.1990   35.9310   29.5560 C.3   293  SER293      0.2020
     55  C          4.5830   36.7370   30.6930 C.2   293  SER293      0.2619
     56  O          5.2900   37.4760   31.3710 O.2   293  SER293     -0.2717
     57  CB         5.6720   34.6390   30.1560 C.3   293  SER293      0.2103
     58  OG         4.5250   33.9580   30.4750 O.3   293  SER293     -0.2182
     59  N          3.2820   36.5950   30.9400 N.am  294  GLY294     -0.1956
     60  CA         2.6870   37.3520   32.0630 C.3   294  GLY294      0.1869
     61  C          2.3820   36.4230   33.2420 C.2   294  GLY294      0.2309
     62  O          1.4370   35.6410   33.2220 O.2   294  GLY294     -0.2863
     63  N          1.1710   36.1230   36.5620 N.3   296  HIS296     -0.1226
     64  CA         0.4250   36.9620   37.4720 C.3   296  HIS296      0.1752
     65  C          0.1800   36.2920   38.8180 C.2   296  HIS296      0.2596
     66  O         -0.1200   36.9860   39.8210 O.2   296  HIS296     -0.2718
     67  CB        -0.9130   37.3660   36.8160 C.3   296  HIS296      0.0759
     68  CG        -1.6820   36.1590   36.3050 C.ar  296  HIS296      0.0818
     69  ND1       -2.6050   35.4880   37.0960 N.ar  296  HIS296     -0.2268
     70  CD2       -1.5920   35.4790   35.1110 C.ar  296  HIS296      0.1154
     71  CE1       -3.1090   34.4920   36.3700 C.ar  296  HIS296      0.1986
     72  NE2       -2.5230   34.4510   35.1600 N.ar  296  HIS296     -0.2212
     73  N          0.3100   34.9770   38.8260 N.am  297  TRP297     -0.1976
     74  CA         0.1230   34.1930   40.0280 C.3   297  TRP297      0.1640
     75  C          1.2730   34.3650   41.0190 C.2   297  TRP297      0.2290
     76  O          2.4470   34.3600   40.6520 O.2   297  TRP297     -0.2864
     77  CB        -0.3650   32.7350   39.7940 C.3   297  TRP297      0.0576
     78  CG         0.5440   31.8570   38.9640 C.ar  297  TRP297      0.0006
     79  CD1        1.3120   30.8260   39.4360 C.ar  297  TRP297      0.0946
     80  CD2        0.7620   31.9060   37.5180 C.ar  297  TRP297      0.0152
     81  NE1        2.0120   30.2360   38.4210 N.ar  297  TRP297     -0.2442
     82  CE2        1.7000   30.8840   37.2150 C.ar  297  TRP297      0.0810
     83  CE3        0.2700   32.7260   36.4560 C.ar  297  TRP297      0.0012
     84  CZ2        2.0790   30.6140   35.8770 C.ar  297  TRP297      0.0191
     85  CZ3        0.6620   32.4250   35.1640 C.ar  297  TRP297      0.0001
     86  CH2        1.5540   31.4090   34.8840 C.ar  297  TRP297      0.0015
     87  N          2.5890   39.0710   26.5930 N.3   338  THR338     -0.1203
     88  CA         1.6640   38.0820   26.1080 C.3   338  THR338      0.1994
     89  C          0.4090   37.7980   26.9680 C.2   338  THR338      0.2618
     90  O         -0.1850   36.7610   26.7950 O.2   338  THR338     -0.2717
     91  CB         2.3900   36.7860   25.6800 C.3   338  THR338      0.1784
     92  OG1        2.7130   36.0300   26.8260 O.3   338  THR338     -0.2211
     93  CG2        3.6610   37.0730   24.8820 C.3   338  THR338      0.0376
     94  N          0.0000   38.7160   27.8680 N.am  339  CYS339     -0.1969
     95  CA        -1.2180   38.5130   28.6940 C.3   339  CYS339      0.1712
     96  C         -1.8400   39.8520   28.9200 C.2   339  CYS339      0.2296
     97  O         -1.1710   40.7210   29.4880 O.2   339  CYS339     -0.2864
     98  CB        -0.8820   37.8030   30.0270 C.3   339  CYS339      0.0983
     99  SG        -2.3380   37.6360   31.0910 S.3   339  CYS339     -0.0798
    100  N         -6.7810   39.6430   31.3190 N.3   342  MET342     -0.1245
    101  CA        -7.3020   39.2260   32.5760 C.3   342  MET342      0.1570
    102  C         -7.5600   40.3080   33.5940 C.2   342  MET342      0.2261
    103  O         -6.8430   41.3210   33.6940 O.2   342  MET342     -0.2867
    104  CB        -6.4550   38.1080   33.1500 C.3   342  MET342      0.0387
    105  CG        -6.0510   37.0620   32.1230 C.3   342  MET342      0.0595
    106  SD        -5.1040   35.7910   32.9650 S.3   342  MET342     -0.1393
    107  CE        -4.8440   34.4460   31.8090 C.3   342  MET342      0.0692
    108  N         -3.8610   36.0470   26.6130 N.3   378  ALA378     -0.1245
    109  CA        -3.2660   34.7720   26.9370 C.3   378  ALA378      0.1562
    110  C         -4.1560   33.5960   26.6660 C.2   378  ALA378      0.2260
    111  O         -3.6630   32.5220   26.2940 O.2   378  ALA378     -0.2867
    112  CB        -2.8410   34.7290   28.3610 C.3   378  ALA378      0.0290
@<TRIPOS>BOND
     1    19    18    2
     2    18    17    1
     3    17    16    1
     4    17    20    1
     5    21    22    1
     6    93    91    1
     7    12    11    2
     8    22    23    1
     9    22    25    1
    10     4     3    2
    11    11    10    1
    12    91    88    1
    13    91    92    1
    14     8     6   am
    15    26    25    1
    16    26    27    1
    17     1     2    1
    18    23    24    2
    19    88    87    1
    20    88    89    1
    21     5     2    1
    22     5     6    1
    23   111   110    2
    24     3     2    1
    25     3     9   am
    26    29    27   ar
    27    27    28   ar
    28   108   109    1
    29   110   109    1
    30     6     7    2
    31    90    89    2
    32   109   112    1
    33    89    94   am
    34    10     9    1
    35    10    13    1
    36    14    13    1
    37    94    95    1
    38    13    15    1
    39    40    38    1
    40    95    96    1
    41    95    98    1
    42    30    31    1
    43    96    97    2
    44    53    54    1
    45    37    38    2
    46    37    36    1
    47    33    32    2
    48    38    39    1
    49    54    57    1
    50    54    55    1
    51    35    36    1
    52    35    34    1
    53    98    99    1
    54    57    58    1
    55    31    32    1
    56    31    34    1
    57    55    59   am
    58    55    56    2
    59    59    60    1
    60    52    51    1
    61   100   101    1
    62   107   106    1
    63    50    51   ar
    64    50    48   ar
    65    60    61    1
    66    51    49   ar
    67   105   106    1
    68   105   104    1
    69   101   104    1
    70   101   102    1
    71    44    43    2
    72    48    46   ar
    73    49    47   ar
    74    62    61    2
    75    43    42    1
    76   102   103    2
    77    46    47   ar
    78    46    45    1
    79    41    42    1
    80    42    45    1
    81    86    85   ar
    82    86    84   ar
    83    70    72   ar
    84    70    68   ar
    85    72    71   ar
    86    85    83   ar
    87    84    82   ar
    88    68    67    1
    89    68    69   ar
    90    71    69   ar
    91    83    80   ar
    92    63    64    1
    93    67    64    1
    94    82    80   ar
    95    82    81   ar
    96    64    65    1
    97    80    78   ar
    98    81    79   ar
    99    65    73   am
   100    65    66    2
   101    73    74    1
   102    78    79   ar
   103    78    77    1
   104    77    74    1
   105    74    75    1
   106    76    75    2
