@<TRIPOS>MOLECULE
tmp/1bycA01.pdb
 117 113 0 0 0
SMALL
GASTEIGER

@<TRIPOS>ATOM
      1  N         -0.2310   25.0700   27.1740 N.3    95  VAL95      -0.1245
      2  CA        -1.6560   25.2390   27.1140 C.3    95  VAL95       0.1561
      3  C         -2.0880   25.5830   25.6870 C.2    95  VAL95       0.2260
      4  O         -1.4880   26.4410   25.0450 O.2    95  VAL95      -0.2867
      5  CB        -2.1440   26.2850   28.1380 C.3    95  VAL95       0.0252
      6  CG1       -1.5850   27.6550   27.8120 C.3    95  VAL95       0.0019
      7  CG2       -3.6700   26.4080   28.1150 C.3    95  VAL95       0.0019
      8  N          6.9550   26.0890   34.3450 N.3   188  TYR188     -0.1241
      9  CA         5.6440   25.5420   34.5900 C.3   188  TYR188      0.1605
     10  C          5.2100   24.6380   33.4940 C.2   188  TYR188      0.2264
     11  O          4.2810   24.9930   32.7580 O.2   188  TYR188     -0.2867
     12  CB         4.6180   26.6360   34.8170 C.3   188  TYR188      0.0534
     13  CG         4.6440   27.8230   33.8340 C.ar  188  TYR188     -0.0201
     14  CD1        5.5870   28.8460   33.9350 C.ar  188  TYR188     -0.0009
     15  CD2        3.6610   27.9470   32.8520 C.ar  188  TYR188     -0.0009
     16  CE1        5.5460   29.9510   33.0910 C.ar  188  TYR188      0.0417
     17  CE2        3.6810   28.9690   31.9060 C.ar  188  TYR188      0.0417
     18  CZ         4.6020   29.9950   32.0690 C.ar  188  TYR188      0.1957
     19  OH         4.5390   31.0760   31.2500 O.3   188  TYR188     -0.2866
     20  N          3.3550   21.8930   31.8220 N.3   190  GLN190     -0.1245
     21  CA         2.1980   21.0090   31.9270 C.3   190  GLN190      0.1566
     22  C          2.6340   19.5550   31.7070 C.2   190  GLN190      0.2260
     23  O          2.0940   18.6450   32.2920 O.2   190  GLN190     -0.2867
     24  CB         1.1640   21.3270   30.8650 C.3   190  GLN190      0.0367
     25  CG        -0.0040   22.1100   31.3990 C.3   190  GLN190      0.0905
     26  CD        -0.8290   22.5940   30.2250 C.2   190  GLN190      0.2608
     27  OE1       -1.7760   23.4270   30.3540 O.2   190  GLN190     -0.2717
     28  NE2       -0.4070   22.1340   29.0210 N.am  190  GLN190     -0.0878
     29  N          2.8290   20.1220   36.4230 N.3   194  TRP194     -0.1241
     30  CA         2.4930   21.4890   36.8600 C.3   194  TRP194      0.1605
     31  C          1.0170   21.7730   36.5980 C.2   194  TRP194      0.2264
     32  O          0.4780   21.4240   35.5360 O.2   194  TRP194     -0.2867
     33  CB         3.2790   22.5350   36.0600 C.3   194  TRP194      0.0550
     34  CG         3.0410   23.9700   36.5660 C.ar  194  TRP194      0.0003
     35  CD1        3.6150   24.5610   37.6250 C.ar  194  TRP194      0.0946
     36  CD2        2.1350   24.9060   35.9910 C.ar  194  TRP194      0.0152
     37  NE1        3.0440   25.8710   37.7420 N.ar  194  TRP194     -0.2442
     38  CE2        2.1720   26.0480   36.7810 C.ar  194  TRP194      0.0810
     39  CE3        1.2880   24.8750   34.8780 C.ar  194  TRP194      0.0012
     40  CZ2        1.3750   27.1740   36.5390 C.ar  194  TRP194      0.0191
     41  CZ3        0.5040   26.0210   34.6290 C.ar  194  TRP194      0.0001
     42  CH2        0.5440   27.1160   35.4230 C.ar  194  TRP194      0.0015
     43  N         -2.0790   24.9560   37.5800 N.3   196  PHE196     -0.1241
     44  CA        -2.1610   26.4210   37.6760 C.3   196  PHE196      0.1605
     45  C         -1.3960   26.9360   38.9000 C.2   196  PHE196      0.2264
     46  O         -0.1570   27.0380   38.8810 O.2   196  PHE196     -0.2867
     47  CB        -3.6070   26.8690   37.8880 C.3   196  PHE196      0.0534
     48  CG        -3.7360   28.3910   37.9410 C.ar  196  PHE196     -0.0203
     49  CD1       -2.7750   29.1880   37.3110 C.ar  196  PHE196     -0.0042
     50  CD2       -4.7830   28.9870   38.6540 C.ar  196  PHE196     -0.0042
     51  CE1       -2.8590   30.5810   37.3910 C.ar  196  PHE196     -0.0003
     52  CE2       -4.8670   30.3810   38.7340 C.ar  196  PHE196     -0.0003
     53  CZ        -3.9040   31.1780   38.1030 C.ar  196  PHE196     -0.0000
     54  N          3.2390   36.5740   30.9370 N.3   294  GLY294     -0.1225
     55  CA         2.5850   37.3120   32.0600 C.3   294  GLY294      0.1811
     56  C          2.3480   36.3790   33.2620 C.2   294  GLY294      0.2280
     57  O          1.4370   35.5530   33.2580 O.2   294  GLY294     -0.2866
     58  N          1.1770   36.1730   36.5470 N.3   296  HIS296     -0.1226
     59  CA         0.4230   36.9990   37.4450 C.3   296  HIS296      0.1752
     60  C          0.1650   36.3270   38.7960 C.2   296  HIS296      0.2596
     61  O         -0.1650   37.0220   39.7660 O.2   296  HIS296     -0.2718
     62  CB        -0.9060   37.4490   36.8160 C.3   296  HIS296      0.0759
     63  CG        -1.6720   36.2930   36.2960 C.ar  296  HIS296      0.0818
     64  ND1       -2.6240   35.6380   37.0830 N.ar  296  HIS296     -0.2268
     65  CD2       -1.5490   35.5800   35.1240 C.ar  296  HIS296      0.1154
     66  CE1       -3.1210   34.6510   36.3770 C.ar  296  HIS296      0.1986
     67  NE2       -2.5060   34.5800   35.1890 N.ar  296  HIS296     -0.2212
     68  N          0.2630   35.0090   38.8230 N.am  297  TRP297     -0.1976
     69  CA         0.0810   34.2360   40.0230 C.3   297  TRP297      0.1640
     70  C          1.2690   34.3900   41.0090 C.2   297  TRP297      0.2290
     71  O          2.4570   34.3240   40.6330 O.2   297  TRP297     -0.2864
     72  CB        -0.3790   32.7790   39.7290 C.3   297  TRP297      0.0576
     73  CG         0.5630   31.8890   38.9360 C.ar  297  TRP297      0.0006
     74  CD1        1.2860   30.8300   39.4210 C.ar  297  TRP297      0.0946
     75  CD2        0.7120   31.8360   37.4860 C.ar  297  TRP297      0.0152
     76  NE1        1.9470   30.1800   38.3880 N.ar  297  TRP297     -0.2442
     77  CE2        1.6460   30.8020   37.1910 C.ar  297  TRP297      0.0810
     78  CE3        0.2330   32.6380   36.4350 C.ar  297  TRP297      0.0012
     79  CZ2        2.0320   30.4860   35.8540 C.ar  297  TRP297      0.0191
     80  CZ3        0.6460   32.3210   35.1340 C.ar  297  TRP297      0.0001
     81  CH2        1.5160   31.2640   34.8490 C.ar  297  TRP297      0.0015
     82  N         -0.0160   38.7080   27.9720 N.3   339  CYS339     -0.1235
     83  CA        -1.2150   38.4940   28.7750 C.3   339  CYS339      0.1677
     84  C         -1.8450   39.8390   28.9930 C.2   339  CYS339      0.2270
     85  O         -1.1480   40.7240   29.4300 O.2   339  CYS339     -0.2867
     86  CB        -0.8050   37.8300   30.1110 C.3   339  CYS339      0.0956
     87  SG        -2.1670   37.6540   31.2600 S.3   339  CYS339     -0.0801
     88  N         -6.8500   39.5360   31.2780 N.3   342  MET342     -0.1245
     89  CA        -7.3440   39.1180   32.5550 C.3   342  MET342      0.1570
     90  C         -7.6530   40.2270   33.5410 C.2   342  MET342      0.2261
     91  O         -7.0260   41.2840   33.5710 O.2   342  MET342     -0.2867
     92  CB        -6.3750   38.0990   33.1180 C.3   342  MET342      0.0387
     93  CG        -6.2270   36.9040   32.2000 C.3   342  MET342      0.0595
     94  SD        -5.0530   35.7560   32.9190 S.3   342  MET342     -0.1393
     95  CE        -5.0110   34.3260   31.8080 C.3   342  MET342      0.0692
     96  N         -9.5360   35.5660   39.0060 N.3   347  GLN347     -0.1245
     97  CA        -8.6230   34.5200   39.4760 C.3   347  GLN347      0.1566
     98  C         -9.0790   33.9460   40.8100 C.2   347  GLN347      0.2260
     99  O         -9.5500   34.6740   41.6410 O.2   347  GLN347     -0.2867
    100  CB        -7.1910   35.0890   39.6130 C.3   347  GLN347      0.0367
    101  CG        -6.8110   35.9660   38.3950 C.3   347  GLN347      0.0905
    102  CD        -6.8270   35.0620   37.2150 C.2   347  GLN347      0.2608
    103  OE1       -6.5070   33.8880   37.3680 O.2   347  GLN347     -0.2717
    104  NE2       -7.3920   35.5340   36.1100 N.am  347  GLN347     -0.0878
    105  N         -3.7330   36.1180   26.7160 N.3   378  ALA378     -0.1231
    106  CA        -3.1150   34.8190   27.0470 C.3   378  ALA378      0.1694
    107  C         -4.0320   33.6750   26.7350 C.2   378  ALA378      0.2591
    108  O         -3.5590   32.6110   26.3740 O.2   378  ALA378     -0.2718
    109  CB        -2.6930   34.6870   28.5000 C.3   378  ALA378      0.0304
    110  N         -5.3560   33.8410   26.9380 N.am  379  LEU379     -0.1980
    111  CA        -6.2350   32.7010   26.6900 C.3   379  LEU379      0.1596
    112  C         -7.3600   33.0760   25.7900 C.2   379  LEU379      0.2287
    113  O         -7.7390   34.2190   25.7590 O.2   379  LEU379     -0.2864
    114  CB        -6.8150   32.1410   28.0060 C.3   379  LEU379      0.0297
    115  CG        -5.7470   31.5790   28.9480 C.3   379  LEU379      0.0022
    116  CD1       -6.3750   31.4480   30.3150 C.3   379  LEU379      0.0001
    117  CD2       -5.2550   30.2180   28.4570 C.3   379  LEU379      0.0001
@<TRIPOS>BOND
     1     4     3    2
     2     3     2    1
     3   113   112    2
     4   112   111    1
     5   108   107    2
     6   111   110    1
     7   111   114    1
     8   105   106    1
     9   107   110   am
    10   107   106    1
    11   106   109    1
    12     2     1    1
    13     2     5    1
    14     6     5    1
    15    82    83    1
    16   114   115    1
    17     7     5    1
    18   117   115    1
    19    83    84    1
    20    83    86    1
    21   115   116    1
    22    84    85    2
    23    28    26   am
    24    86    87    1
    25    26    27    2
    26    26    25    1
    27    24    25    1
    28    24    21    1
    29    54    55    1
    30    19    18    1
    31    88    89    1
    32    22    21    1
    33    22    23    2
    34    95    94    1
    35    20    21    1
    36    17    18   ar
    37    17    15   ar
    38    55    56    1
    39    18    16   ar
    40    93    94    1
    41    93    92    1
    42    89    92    1
    43    89    90    1
    44    11    10    2
    45    15    13   ar
    46    16    14   ar
    47    57    56    2
    48    10     9    1
    49    90    91    2
    50    13    14   ar
    51    13    12    1
    52     8     9    1
    53     9    12    1
    54    41    39   ar
    55    41    42   ar
    56    81    80   ar
    57    81    79   ar
    58    39    36   ar
    59    65    67   ar
    60    65    63   ar
    61    80    78   ar
    62    67    66   ar
    63    42    40   ar
    64    32    31    2
    65    79    77   ar
    66    36    34   ar
    67    36    38   ar
    68    33    34    1
    69    33    30    1
    70   104   102   am
    71    63    62    1
    72    63    64   ar
    73    66    64   ar
    74    29    30    1
    75    78    75   ar
    76    40    38   ar
    77    58    59    1
    78    34    35   ar
    79    31    30    1
    80    38    37   ar
    81    62    59    1
    82    77    75   ar
    83    77    76   ar
    84   102   103    2
    85   102   101    1
    86    49    51   ar
    87    49    48   ar
    88    51    53   ar
    89    59    60    1
    90    75    73   ar
    91    43    44    1
    92    35    37   ar
    93    44    47    1
    94    44    45    1
    95    47    48    1
    96    48    50   ar
    97    53    52   ar
    98    76    74   ar
    99   101   100    1
   100    50    52   ar
   101    60    68   am
   102    60    61    2
   103    68    69    1
   104    46    45    2
   105    73    74   ar
   106    73    72    1
   107    96    97    1
   108    97   100    1
   109    97    98    1
   110    72    69    1
   111    69    70    1
   112    71    70    2
   113    98    99    2
