@<TRIPOS>MOLECULE
tmp/1byeA00.pdb
 170 167 0 0 0
SMALL
GASTEIGER

@<TRIPOS>ATOM
      1  N         -6.6740   -7.5990    4.4010 N.3    10  MET10      -0.1230
      2  CA        -5.3580   -8.1780    4.6290 C.3    10  MET10       0.1702
      3  C         -4.7730   -7.5850    5.9390 C.2    10  MET10       0.2593
      4  O         -3.8880   -8.2300    6.5300 O.2    10  MET10      -0.2718
      5  CB        -4.3230   -7.9560    3.5160 C.3    10  MET10       0.0401
      6  CG        -3.7100   -6.5800    3.6280 C.3    10  MET10       0.0596
      7  SD        -2.6430   -6.1110    2.2560 S.3    10  MET10      -0.1393
      8  CE        -3.1370   -4.3740    2.3390 C.3    10  MET10       0.0692
      9  N         -5.1830   -6.3410    6.2030 N.am   11  SER11      -0.1938
     10  CA        -5.0360   -5.8020    7.5240 C.3    11  SER11       0.2055
     11  C         -5.7660   -6.6410    8.5520 C.2    11  SER11       0.2643
     12  O         -6.5540   -7.4820    8.1070 O.2    11  SER11      -0.2714
     13  CB        -5.4300   -4.3240    7.6070 C.3    11  SER11       0.2130
     14  OG        -5.7610   -4.1290    8.9860 O.3    11  SER11      -0.2179
     15  N         -5.2530   -6.7610    9.7790 N.am   12  TRP12      -0.1959
     16  CA        -5.7590   -7.7500   10.7440 C.3    12  TRP12       0.1771
     17  C         -6.2700   -6.8640   11.8890 C.2    12  TRP12       0.2619
     18  O         -6.9510   -7.3980   12.7440 O.2    12  TRP12      -0.2715
     19  CB        -4.9360   -8.8020   11.4600 C.3    12  TRP12       0.0590
     20  CG        -3.5560   -8.3870   11.8870 C.ar   12  TRP12       0.0006
     21  CD1       -3.1550   -7.9630   13.1200 C.ar   12  TRP12       0.0946
     22  CD2       -2.3940   -8.3360   11.0440 C.ar   12  TRP12       0.0152
     23  NE1       -1.8450   -7.6090   13.0780 N.ar   12  TRP12      -0.2442
     24  CE2       -1.3420   -7.8460   11.8310 C.ar   12  TRP12       0.0810
     25  CE3       -2.1650   -8.6330    9.7010 C.ar   12  TRP12       0.0012
     26  CZ2       -0.0510   -7.6570   11.3360 C.ar   12  TRP12       0.0191
     27  CZ3       -0.8790   -8.4400    9.2050 C.ar   12  TRP12       0.0001
     28  CH2        0.1470   -7.9570   10.0250 C.ar   12  TRP12       0.0015
     29  N         -5.9840   -5.5710   11.7000 N.am   13  ASN13      -0.1972
     30  CA        -6.7120   -4.5860   12.5030 C.3    13  ASN13       0.1688
     31  C         -8.1630   -4.5750   12.0150 C.2    13  ASN13       0.2292
     32  O         -9.1670   -4.7030   12.7230 O.2    13  ASN13      -0.2864
     33  CB        -6.0440   -3.2390   12.3540 C.3    13  ASN13       0.1181
     34  CG        -5.0090   -2.9670   13.4690 C.2    13  ASN13       0.2629
     35  OD1       -5.0470   -3.7260   14.4450 O.2    13  ASN13      -0.2716
     36  ND2       -4.2250   -1.9080   13.2070 N.am   13  ASN13      -0.0877
     37  N         -3.8860    0.2490   -0.1490 N.3    35  PHE35      -0.1298
     38  CA        -2.5680    0.8550    0.0870 C.3    35  PHE35       0.1290
     39  C         -1.8760    1.2160   -1.2180 C.3    35  PHE35       0.2013
     40  O         -1.6350    2.4540   -1.3200 O.3    35  PHE35      -0.2188
     41  CB        -1.7860    0.0660    1.1230 C.3    35  PHE35       0.0480
     42  CG        -2.3470   -0.1600    2.5080 C.ar   35  PHE35      -0.0206
     43  CD1       -2.9270    0.8480    3.2650 C.ar   35  PHE35      -0.0042
     44  CD2       -2.2390   -1.3980    3.1140 C.ar   35  PHE35      -0.0042
     45  CE1       -3.3800    0.6280    4.5600 C.ar   35  PHE35      -0.0003
     46  CE2       -2.7760   -1.6310    4.3480 C.ar   35  PHE35      -0.0003
     47  CZ        -3.3300   -0.6200    5.1060 C.ar   35  PHE35      -0.0000
     48  N         -5.9700    5.3220    1.3360 N.3    40  HIS40      -0.1226
     49  CA        -5.8430    5.7950    2.6970 C.3    40  HIS40       0.1752
     50  C         -5.3310    7.2060    2.8870 C.2    40  HIS40       0.2595
     51  O         -5.5890    7.6830    4.0040 O.2    40  HIS40      -0.2718
     52  CB        -5.0030    4.7880    3.4720 C.3    40  HIS40       0.0759
     53  CG        -3.5960    4.5840    3.0400 C.ar   40  HIS40       0.0818
     54  ND1       -3.0920    4.9170    1.8130 N.ar   40  HIS40      -0.2268
     55  CD2       -2.5460    4.0570    3.7160 C.ar   40  HIS40       0.1154
     56  CE1       -1.8150    4.6100    1.7490 C.ar   40  HIS40       0.1986
     57  NE2       -1.4600    4.0790    2.8930 N.ar   40  HIS40      -0.2212
     58  N         -4.8090    7.9740    1.9380 N.am   41  LYS41      -0.1980
     59  CA        -4.2150    9.2630    2.3040 C.3    41  LYS41       0.1596
     60  C         -4.9250   10.3350    1.4890 C.2    41  LYS41       0.2287
     61  O         -4.7710   11.5570    1.5940 O.2    41  LYS41      -0.2864
     62  CB        -2.7000    9.2960    2.0640 C.3    41  LYS41       0.0298
     63  CG        -1.8760    8.0840    2.4090 C.3    41  LYS41       0.0038
     64  CD        -0.9710    8.1210    3.6130 C.3    41  LYS41       0.0206
     65  CE        -1.6060    8.4540    4.9350 C.3    41  LYS41       0.1093
     66  NZ        -1.2750    7.5700    6.0770 N.3    41  LYS41      -0.1314
     67  N         -4.7300    8.6570    8.4360 N.3    52  GLY52      -0.1210
     68  CA        -4.4560    8.1170    7.1060 C.3    52  GLY52       0.1956
     69  C         -4.3050    6.6110    7.2780 C.2    52  GLY52       0.2612
     70  O         -3.4060    6.0020    6.6820 O.2    52  GLY52      -0.2717
     71  N         -5.1590    6.0430    8.1730 N.am   53  GLN53      -0.1965
     72  CA        -5.2660    4.5860    8.0980 C.3    53  GLN53       0.1733
     73  C         -6.5630    3.8380    8.3580 C.2    53  GLN53       0.2616
     74  O         -7.5340    4.2300    8.9630 O.2    53  GLN53      -0.2715
     75  CB        -4.1980    3.9770    9.0740 C.3    53  GLN53       0.0408
     76  CG        -3.5050    4.9440    9.9570 C.3    53  GLN53       0.0908
     77  CD        -2.9120    4.7970   11.2900 C.2    53  GLN53       0.2608
     78  OE1       -1.8960    4.1140   11.4140 O.2    53  GLN53      -0.2717
     79  NE2       -3.4620    5.4760   12.2990 N.am   53  GLN53      -0.0878
     80  N         -6.5810    2.5960    7.8820 N.am   54  VAL54      -0.1964
     81  CA        -7.7290    1.6950    7.9700 C.3    54  VAL54       0.1712
     82  C         -7.4940    1.0440    9.3200 C.2    54  VAL54       0.2458
     83  O         -6.3400    0.9740    9.6720 O.2    54  VAL54      -0.2730
     84  CB        -7.8370    0.7290    6.7950 C.3    54  VAL54       0.0289
     85  CG1       -7.2070    1.2950    5.5220 C.3    54  VAL54       0.0023
     86  CG2       -7.2100   -0.6340    7.0330 C.3    54  VAL54       0.0023
     87  N         -8.5090    0.7340   10.0880 N.am   55  PRO55      -0.2727
     88  CA        -9.8880    0.9480    9.6400 C.3    55  PRO55       0.1402
     89  C        -10.3490    2.3680    9.9070 C.2    55  PRO55       0.2269
     90  O         -9.6710    3.0960   10.6300 O.2    55  PRO55      -0.2865
     91  CB       -10.6290   -0.0980   10.4690 C.3    55  PRO55       0.0296
     92  CG        -9.9010    0.0750   11.7700 C.3    55  PRO55       0.0237
     93  CD        -8.4650   -0.1220   11.2960 C.3    55  PRO55       0.0939
     94  N         -9.4110    3.5520   14.8890 N.3    66  GLU66      -0.1231
     95  CA        -8.7880    2.6680   15.8370 C.3    66  GLU66       0.1699
     96  C         -9.6320    1.4280   16.0940 C.2    66  GLU66       0.2593
     97  O        -10.6870    1.5070   16.7350 O.2    66  GLU66      -0.2718
     98  CB        -8.5940    3.3650   17.1950 C.3    66  GLU66       0.0402
     99  CG        -7.7710    4.6520   17.2060 C.3    66  GLU66       0.1161
    100  CD        -6.4330    4.3660   16.5600 C.2    66  GLU66       0.3649
    101  OE1       -5.8840    3.3280   17.0090 O.co2  66  GLU66      -0.2457
    102  OE2       -5.9920    5.1070   15.6710 O.co2  66  GLU66      -0.2457
    103  N         -9.1310    0.2820   15.6440 N.am   67  SER67      -0.1938
    104  CA        -9.7480   -1.0100   15.6810 C.3    67  SER67       0.2055
    105  C        -10.5850   -1.1360   16.9430 C.2    67  SER67       0.2642
    106  O        -11.7630   -1.5020   17.0020 O.2    67  SER67      -0.2714
    107  CB        -8.7230   -2.1440   15.7300 C.3    67  SER67       0.2130
    108  OG        -9.2180   -3.4710   15.8760 O.3    67  SER67      -0.2179
    109  N         -9.8600   -0.8940   18.0310 N.am   68  ARG68      -0.1977
    110  CA       -10.3620   -1.3070   19.3430 C.3    68  ARG68       0.1597
    111  C        -11.4980   -0.4060   19.7830 C.2    68  ARG68       0.2287
    112  O        -12.3570   -0.9070   20.4870 O.2    68  ARG68      -0.2864
    113  CB        -9.1560   -1.3870   20.2920 C.3    68  ARG68       0.0334
    114  CG        -8.4070   -2.6880   20.0250 C.3    68  ARG68       0.0492
    115  CD        -7.7040   -3.2330   21.2670 C.3    68  ARG68       0.2205
    116  NE        -6.7790   -4.3260   20.9630 N.pl3  68  ARG68      -0.0865
    117  CZ        -5.7060   -4.2000   20.1740 C.cat  68  ARG68       0.5346
    118  NH1       -5.2740   -3.0990   19.5380 N.pl3  68  ARG68       0.1354
    119  NH2       -5.0450   -5.3450   20.0430 N.pl3  68  ARG68       0.1354
    120  N          2.4110   -9.4220   16.5480 N.3   110  ASN110     -0.1240
    121  CA         2.6450   -8.4450   15.5070 C.3   110  ASN110      0.1653
    122  C          3.8780   -8.7750   14.6910 C.2   110  ASN110      0.2266
    123  O          3.7070   -9.0930   13.5140 O.2   110  ASN110     -0.2867
    124  CB         2.5850   -6.9900   15.9320 C.3   110  ASN110      0.1155
    125  CG         1.3290   -6.3140   15.4040 C.2   110  ASN110      0.2627
    126  OD1        0.3360   -6.9710   15.0700 O.2   110  ASN110     -0.2716
    127  ND2        1.2660   -4.9850   15.3230 N.am  110  ASN110     -0.0877
    128  N          3.9800   -9.6890   10.8670 N.3   114  PHE114     -0.1241
    129  CA         4.8830   -8.9660    9.9820 C.3   114  PHE114      0.1605
    130  C          6.0980   -9.7370    9.4900 C.2   114  PHE114      0.2264
    131  O          6.4540   -9.6890    8.3110 O.2   114  PHE114     -0.2867
    132  CB         5.4160   -7.7130   10.6760 C.3   114  PHE114      0.0534
    133  CG         6.0840   -6.8140    9.6670 C.ar  114  PHE114     -0.0203
    134  CD1        7.3690   -7.0220    9.2270 C.ar  114  PHE114     -0.0042
    135  CD2        5.3600   -5.7300    9.1730 C.ar  114  PHE114     -0.0042
    136  CE1        7.8920   -6.1450    8.3040 C.ar  114  PHE114     -0.0003
    137  CE2        5.8940   -4.8560    8.2420 C.ar  114  PHE114     -0.0003
    138  CZ         7.1840   -5.0740    7.8150 C.ar  114  PHE114     -0.0000
    139  N          4.6320  -12.6700    7.0540 N.3   117  LEU117     -0.1231
    140  CA         3.7120  -12.3680    5.9670 C.3   117  LEU117      0.1693
    141  C          4.1100  -11.0890    5.2890 C.2   117  LEU117      0.2591
    142  O          4.6010  -11.1980    4.1720 O.2   117  LEU117     -0.2718
    143  CB         2.2470  -12.2280    6.3910 C.3   117  LEU117      0.0284
    144  CG         1.7710  -13.3980    7.2810 C.3   117  LEU117      0.0019
    145  CD1        0.3900  -13.0950    7.8030 C.3   117  LEU117      0.0001
    146  CD2        1.9420  -14.7140    6.5730 C.3   117  LEU117      0.0001
    147  N          3.9020   -9.9060    5.8400 N.am  118  ILE118     -0.1980
    148  CA         4.2020   -8.6810    5.1270 C.3   118  ILE118      0.1595
    149  C          5.5700   -8.5890    4.4720 C.2   118  ILE118      0.2287
    150  O          5.7570   -7.9570    3.4100 O.2   118  ILE118     -0.2864
    151  CB         4.1230   -7.4080    5.9670 C.3   118  ILE118      0.0276
    152  CG1        2.6890   -7.2190    6.4640 C.3   118  ILE118      0.0022
    153  CG2        4.5310   -6.1960    5.1060 C.3   118  ILE118      0.0022
    154  CD1        2.3270   -7.8940    7.7340 C.3   118  ILE118      0.0001
    155  N          6.7610   -9.5660    1.0870 N.3   121  MET121     -0.1230
    156  CA         6.1000   -8.8160    0.0750 C.3   121  MET121      0.1702
    157  C          7.0060   -7.6680   -0.3070 C.2   121  MET121      0.2589
    158  O          6.8460   -7.1900   -1.4570 O.2   121  MET121     -0.2718
    159  CB         4.8080   -8.1040    0.5380 C.3   121  MET121      0.0401
    160  CG         3.4800   -8.4710   -0.1140 C.3   121  MET121      0.0596
    161  SD         2.1600   -9.0020    1.0200 S.3   121  MET121     -0.1393
    162  CE         1.8940   -7.4990    1.9460 C.3   121  MET121      0.0692
    163  N          7.7670   -7.1750    0.7060 N.am  122  LEU122     -0.2033
    164  CA         8.6420   -6.0920    0.1930 C.3   122  LEU122      0.1282
    165  C         10.0340   -6.4860   -0.2440 C.3   122  LEU122      0.2036
    166  O         10.4540   -5.8740   -1.2480 O.3   122  LEU122     -0.2185
    167  CB         8.6890   -4.8490    1.0350 C.3   122  LEU122      0.0244
    168  CG         7.4010   -4.6390    1.8520 C.3   122  LEU122      0.0018
    169  CD1        7.4820   -5.4070    3.1510 C.3   122  LEU122      0.0001
    170  CD2        7.2010   -3.1480    1.9840 C.3   122  LEU122      0.0001
@<TRIPOS>BOND
     1   158   157    2
     2    40    39    1
     3   166   165    1
     4    39    38    1
     5   157   156    1
     6   157   163   am
     7   165   164    1
     8    37    38    1
     9   160   159    1
    10   160   161    1
    11   156   159    1
    12   156   155    1
    13    38    41    1
    14   164   163    1
    15   164   167    1
    16   161   162    1
    17   167   168    1
    18    41    42    1
    19    48    49    1
    20    60    61    2
    21    60    59    1
    22    56    54   ar
    23    56    57   ar
    24    54    53   ar
    25   168   170    1
    26   168   169    1
    27    58    59    1
    28    58    50   am
    29    62    59    1
    30    62    63    1
    31     7     8    1
    32     7     6    1
    33    63    64    1
    34    42    44   ar
    35    42    43   ar
    36    49    50    1
    37    49    52    1
    38    50    51    2
    39    57    55   ar
    40    53    52    1
    41    53    55   ar
    42    44    46   ar
    43    43    45   ar
    44   150   149    2
    45     5     6    1
    46     5     2    1
    47    64    65    1
    48   142   141    2
    49    46    47   ar
    50     1     2    1
    51   149   148    1
    52    45    47   ar
    53     2     3    1
    54    65    66    1
    55   153   151    1
    56   148   147    1
    57   148   151    1
    58   141   147   am
    59   141   140    1
    60    85    84    1
    61     3     9   am
    62     3     4    2
    63   151   152    1
    64   140   143    1
    65   140   139    1
    66     9    10    1
    67   143   144    1
    68   152   154    1
    69   146   144    1
    70    70    69    2
    71    84    86    1
    72    84    81    1
    73    68    69    1
    74    68    67    1
    75    69    71   am
    76   144   145    1
    77    10    13    1
    78    10    11    1
    79    13    14    1
    80   138   137   ar
    81   138   136   ar
    82    80    81    1
    83    80    73   am
    84    81    82    1
    85    72    71    1
    86    72    73    1
    87    72    75    1
    88    12    11    2
    89   137   135   ar
    90   136   134   ar
    91   131   130    2
    92    73    74    2
    93    11    15   am
    94    75    76    1
    95   135   133   ar
    96    27    25   ar
    97    27    28   ar
    98   134   133   ar
    99    82    83    2
   100    82    87   am
   101   130   129    1
   102    88    89    1
   103    88    87    1
   104    88    91    1
   105   133   132    1
   106    25    22   ar
   107    15    16    1
   108    89    90    2
   109    76    77    1
   110   129   132    1
   111   129   128    1
   112    28    26   ar
   113    87    93    1
   114    91    92    1
   115    16    19    1
   116    16    17    1
   117    22    24   ar
   118    22    20   ar
   119    77    78    2
   120    77    79   am
   121    93    92    1
   122    26    24   ar
   123    19    20    1
   124    29    17   am
   125    29    30    1
   126    24    23   ar
   127    20    21   ar
   128    17    18    2
   129    31    30    1
   130    31    32    2
   131    33    30    1
   132    33    34    1
   133    23    21   ar
   134    36    34   am
   135    34    35    2
   136   123   122    2
   137   122   121    1
   138    94    95    1
   139   126   125    2
   140   127   125   am
   141   125   124    1
   142   121   124    1
   143   121   120    1
   144   103   104    1
   145   103    96   am
   146   102   100   ar
   147   104   107    1
   148   104   105    1
   149   107   108    1
   150    95    96    1
   151    95    98    1
   152    96    97    2
   153   100   101   ar
   154   100    99    1
   155   105   106    2
   156   105   109   am
   157    98    99    1
   158   109   110    1
   159   110   111    1
   160   110   113    1
   161   118   117    1
   162   111   112    2
   163   114   113    1
   164   114   115    1
   165   119   117    1
   166   117   116    2
   167   116   115    1
