@<TRIPOS>MOLECULE
tmp/1byeD00.pdb
 150 146 0 0 0
SMALL
GASTEIGER

@<TRIPOS>ATOM
      1  N         -7.4290   23.3390   59.6840 N.3    10  MET10      -0.1230
      2  CA        -6.7900   23.6340   60.9490 C.3    10  MET10       0.1702
      3  C         -7.8680   24.3220   61.8040 C.2    10  MET10       0.2593
      4  O         -7.8240   24.1660   63.0250 O.2    10  MET10      -0.2718
      5  CB        -5.5940   24.5400   60.8590 C.3    10  MET10       0.0401
      6  CG        -4.3870   24.2260   60.0160 C.3    10  MET10       0.0596
      7  SD        -3.1550   25.5580   60.2220 S.3    10  MET10      -0.1393
      8  CE        -2.1870   24.8710   61.5770 C.3    10  MET10       0.0692
      9  N         -8.6560   25.1930   61.1790 N.am   11  SER11      -0.1938
     10  CA        -9.5350   26.0280   62.0050 C.3    11  SER11       0.2055
     11  C        -10.7630   25.2360   62.4460 C.2    11  SER11       0.2643
     12  O        -11.4200   24.5440   61.6610 O.2    11  SER11      -0.2714
     13  CB        -9.8840   27.3450   61.3130 C.3    11  SER11       0.2130
     14  OG       -10.2560   28.2970   62.3110 O.3    11  SER11      -0.2179
     15  N        -11.0520   25.2780   63.7590 N.am   12  TRP12      -0.1959
     16  CA       -12.2710   24.5810   64.2070 C.3    12  TRP12       0.1771
     17  C        -13.5090   25.4030   63.8510 C.2    12  TRP12       0.2619
     18  O        -14.5950   24.8500   63.7270 O.2    12  TRP12      -0.2715
     19  CB       -12.1820   24.1790   65.6840 C.3    12  TRP12       0.0590
     20  CG       -11.6470   25.2610   66.5760 C.ar   12  TRP12       0.0006
     21  CD1      -12.2700   26.4420   66.8580 C.ar   12  TRP12       0.0946
     22  CD2      -10.3910   25.3110   67.2540 C.ar   12  TRP12       0.0152
     23  NE1      -11.4850   27.2070   67.6790 N.ar   12  TRP12      -0.2442
     24  CE2      -10.3300   26.5340   67.9510 C.ar   12  TRP12       0.0810
     25  CE3       -9.3020   24.4330   67.3530 C.ar   12  TRP12       0.0012
     26  CZ2       -9.2210   26.9230   68.7010 C.ar   12  TRP12       0.0191
     27  CZ3       -8.2130   24.8030   68.1240 C.ar   12  TRP12       0.0001
     28  CH2       -8.1800   26.0440   68.7690 C.ar   12  TRP12       0.0015
     29  N        -13.4580   26.7060   63.6650 N.am   13  ASN13      -0.1972
     30  CA       -14.2740   27.5180   62.8130 C.3    13  ASN13       0.1688
     31  C        -14.5570   27.0180   61.4000 C.2    13  ASN13       0.2292
     32  O        -15.6580   26.6130   60.9570 O.2    13  ASN13      -0.2864
     33  CB       -13.6300   28.9080   62.6640 C.3    13  ASN13       0.1181
     34  CG       -13.6970   29.5550   64.0340 C.2    13  ASN13       0.2629
     35  OD1      -13.8680   28.8890   65.0530 O.2    13  ASN13      -0.2716
     36  ND2      -13.4740   30.8540   64.1080 N.am   13  ASN13      -0.0877
     37  N        -16.2300   23.6440   61.1990 N.3    16  ARG16      -0.1301
     38  CA       -17.5600   23.7620   61.7740 C.3    16  ARG16       0.1248
     39  C        -18.5990   23.8770   60.6480 C.3    16  ARG16       0.2009
     40  O        -19.1540   22.7940   60.4310 O.3    16  ARG16      -0.2188
     41  CB       -17.7880   24.9710   62.6770 C.3    16  ARG16       0.0254
     42  CG       -18.8650   24.6560   63.7220 C.3    16  ARG16       0.0485
     43  CD       -19.2600   26.0480   64.3000 C.3    16  ARG16       0.2205
     44  NE       -18.3630   26.2700   65.4010 N.pl3  16  ARG16      -0.0865
     45  CZ       -17.4160   27.0940   65.7650 C.cat  16  ARG16       0.5346
     46  NH1      -17.0690   28.2160   65.1670 N.pl3  16  ARG16       0.1354
     47  NH2      -16.8670   26.8130   66.9380 N.pl3  16  ARG16       0.1354
     48  N         -2.4120   31.9530   54.1470 N.3    35  PHE35      -0.1241
     49  CA        -1.9960   32.8930   55.1640 C.3    35  PHE35       0.1605
     50  C         -0.5710   33.4080   55.0560 C.2    35  PHE35       0.2264
     51  O         -0.3400   34.6240   55.1650 O.2    35  PHE35      -0.2867
     52  CB        -2.1760   32.2650   56.5570 C.3    35  PHE35       0.0534
     53  CG        -3.5960   31.8530   56.8190 C.ar   35  PHE35      -0.0203
     54  CD1       -4.6630   32.6520   56.4280 C.ar   35  PHE35      -0.0042
     55  CD2       -3.8500   30.6490   57.4660 C.ar   35  PHE35      -0.0042
     56  CE1       -5.9580   32.2570   56.6740 C.ar   35  PHE35      -0.0003
     57  CE2       -5.1560   30.2560   57.7180 C.ar   35  PHE35      -0.0003
     58  CZ        -6.2080   31.0590   57.3130 C.ar   35  PHE35      -0.0000
     59  N         -5.8020   35.4990   51.9500 N.3    40  HIS40      -0.1226
     60  CA        -6.9510   35.9610   52.6780 C.3    40  HIS40       0.1752
     61  C         -7.0420   37.4580   52.8240 C.2    40  HIS40       0.2595
     62  O         -7.9980   37.9830   53.4060 O.2    40  HIS40      -0.2718
     63  CB        -6.9190   35.3040   54.0740 C.3    40  HIS40       0.0759
     64  CG        -5.7590   35.7540   54.9110 C.ar   40  HIS40       0.0818
     65  ND1       -5.7060   35.6340   56.2870 N.ar   40  HIS40      -0.2268
     66  CD2       -4.6110   36.3770   54.5810 C.ar   40  HIS40       0.1154
     67  CE1       -4.5690   36.1380   56.7340 C.ar   40  HIS40       0.1986
     68  NE2       -3.8870   36.6200   55.7080 N.ar   40  HIS40      -0.2212
     69  N         -6.0850   38.2400   52.3500 N.am   41  LYS41      -0.1980
     70  CA        -6.1520   39.6810   52.2050 C.3    41  LYS41       0.1596
     71  C         -5.8990   40.1760   50.7840 C.2    41  LYS41       0.2287
     72  O         -5.8050   41.3970   50.5300 O.2    41  LYS41      -0.2864
     73  CB        -5.1240   40.2950   53.1650 C.3    41  LYS41       0.0298
     74  CG        -5.2190   39.7860   54.6000 C.3    41  LYS41       0.0038
     75  CD        -6.3290   40.5160   55.3500 C.3    41  LYS41       0.0206
     76  CE        -6.8500   39.7080   56.5320 C.3    41  LYS41       0.1093
     77  NZ        -6.5280   38.2630   56.3700 N.3    41  LYS41      -0.1314
     78  N        -14.7300   37.7200   51.5340 N.3    49  ASN49      -0.1240
     79  CA       -14.8310   38.0750   52.9310 C.3    49  ASN49       0.1653
     80  C        -14.2170   39.4510   53.1270 C.2    49  ASN49       0.2266
     81  O        -13.0350   39.7690   53.3370 O.2    49  ASN49      -0.2867
     82  CB       -14.2210   37.0630   53.8970 C.3    49  ASN49       0.1155
     83  CG       -14.3050   37.4630   55.3780 C.2    49  ASN49       0.2627
     84  OD1      -14.3410   38.6500   55.7940 O.2    49  ASN49      -0.2716
     85  ND2      -14.3340   36.3320   56.1260 N.am   49  ASN49      -0.0877
     86  N        -11.1080   37.1860   56.7190 N.3    53  GLN53      -0.1231
     87  CA       -10.9630   35.8890   57.3390 C.3    53  GLN53       0.1698
     88  C        -11.5060   34.6730   56.6010 C.2    53  GLN53       0.2592
     89  O        -11.4600   34.5840   55.3570 O.2    53  GLN53      -0.2718
     90  CB       -11.4990   35.8970   58.7970 C.3    53  GLN53       0.0381
     91  CG       -11.3540   37.3320   59.3430 C.3    53  GLN53       0.0905
     92  CD       -11.9990   37.5100   60.6890 C.2    53  GLN53       0.2608
     93  OE1      -11.3930   38.1450   61.5520 O.2    53  GLN53      -0.2717
     94  NE2      -13.1960   36.9730   60.8510 N.am   53  GLN53      -0.0878
     95  N        -11.3760   33.5180   57.2760 N.am   54  VAL54      -0.1966
     96  CA       -12.0460   32.3250   56.7900 C.3    54  VAL54       0.1712
     97  C        -12.7530   31.7540   58.0400 C.2    54  VAL54       0.2458
     98  O        -12.5570   32.3360   59.1120 O.2    54  VAL54      -0.2730
     99  CB       -11.1920   31.1880   56.2280 C.3    54  VAL54       0.0289
    100  CG1      -10.8560   31.3860   54.7540 C.3    54  VAL54       0.0023
    101  CG2       -9.9920   30.9270   57.1480 C.3    54  VAL54       0.0023
    102  N        -13.5820   30.7320   57.8080 N.am   55  PRO55      -0.2727
    103  CA       -14.0530   30.4380   56.4560 C.3    55  PRO55       0.1402
    104  C        -14.8560   31.5200   55.7590 C.2    55  PRO55       0.2269
    105  O        -15.1850   32.5690   56.3080 O.2    55  PRO55      -0.2865
    106  CB       -14.9870   29.2710   56.7100 C.3    55  PRO55       0.0296
    107  CG       -15.6880   29.7190   57.9610 C.3    55  PRO55       0.0237
    108  CD       -14.6520   30.4090   58.8020 C.3    55  PRO55       0.0939
    109  N        -18.6150   34.1950   58.0970 N.3    66  GLU66      -0.1231
    110  CA       -18.7980   33.9120   59.5110 C.3    66  GLU66       0.1699
    111  C        -19.4120   32.5610   59.7410 C.2    66  GLU66       0.2593
    112  O        -20.5510   32.3490   60.1000 O.2    66  GLU66      -0.2718
    113  CB       -19.5300   35.0560   60.2090 C.3    66  GLU66       0.0402
    114  CG       -18.8610   35.6130   61.4220 C.3    66  GLU66       0.1161
    115  CD       -17.8400   36.7080   61.4750 C.2    66  GLU66       0.3649
    116  OE1      -17.4200   37.5350   60.6270 O.co2  66  GLU66      -0.2457
    117  OE2      -17.3700   36.8010   62.6510 O.co2  66  GLU66      -0.2457
    118  N        -18.7310   31.4670   59.6290 N.am   67  SER67      -0.1938
    119  CA       -18.9440   30.0760   59.8510 C.3    67  SER67       0.2055
    120  C        -20.2700   29.6590   60.4690 C.2    67  SER67       0.2642
    121  O        -20.7780   28.5330   60.2600 O.2    67  SER67      -0.2714
    122  CB       -17.7350   29.5560   60.6840 C.3    67  SER67       0.2130
    123  OG       -17.7790   29.9200   62.0530 O.3    67  SER67      -0.2179
    124  N        -20.8410   30.4870   61.3200 N.am   68  ARG68      -0.1977
    125  CA       -22.0860   30.1930   62.0080 C.3    68  ARG68       0.1597
    126  C        -23.2580   30.6380   61.1240 C.2    68  ARG68       0.2287
    127  O        -24.2130   29.8710   60.9250 O.2    68  ARG68      -0.2864
    128  CB       -21.9940   30.7370   63.4370 C.3    68  ARG68       0.0334
    129  CG       -22.1970   29.7410   64.5770 C.3    68  ARG68       0.0492
    130  CD       -21.8780   30.4150   65.9190 C.3    68  ARG68       0.2205
    131  NE       -20.8970   29.6990   66.7310 N.pl3  68  ARG68      -0.0865
    132  CZ       -19.6220   30.0700   66.8490 C.cat  68  ARG68       0.5346
    133  NH1      -19.1980   31.1600   66.2140 N.pl3  68  ARG68       0.1354
    134  NH2      -18.7180   29.4050   67.5640 N.pl3  68  ARG68       0.1354
    135  N         -2.1750   26.1110   70.6950 N.3   118  ILE118     -0.1301
    136  CA        -1.7360   27.1740   69.7910 C.3   118  ILE118      0.1246
    137  C         -0.4250   27.7510   70.2860 C.3   118  ILE118      0.2009
    138  O          0.4460   27.7470   69.4220 O.3   118  ILE118     -0.2188
    139  CB        -2.8030   28.2280   69.5160 C.3   118  ILE118      0.0202
    140  CG1       -4.0330   27.5140   68.9160 C.3   118  ILE118      0.0015
    141  CG2       -2.2670   29.2930   68.5760 C.3   118  ILE118      0.0016
    142  CD1       -3.8260   26.8150   67.5890 C.3   118  ILE118      0.0000
    143  N          2.7890   25.9200   69.5970 N.3   121  MET121     -0.1245
    144  CA         3.2950   25.7750   68.2250 C.3   121  MET121      0.1570
    145  C          3.6610   27.1410   67.6570 C.2   121  MET121      0.2261
    146  O          4.1120   27.2100   66.5210 O.2   121  MET121     -0.2867
    147  CB         2.4030   24.9430   67.3070 C.3   121  MET121      0.0387
    148  CG         1.0560   25.5610   66.9780 C.3   121  MET121      0.0595
    149  SD        -0.2160   24.3780   66.4080 S.3   121  MET121     -0.1393
    150  CE        -0.6270   25.2120   64.8610 C.3   121  MET121      0.0692
@<TRIPOS>BOND
     1    72    71    2
     2    71    70    1
     3    78    79    1
     4    59    60    1
     5    70    69    1
     6    70    73    1
     7    69    61   am
     8    60    61    1
     9    60    63    1
    10    61    62    2
    11    79    80    1
    12    79    82    1
    13    80    81    2
    14    73    74    1
    15    82    83    1
    16    63    64    1
    17    48    49    1
    18    66    64   ar
    19    66    68   ar
    20    74    75    1
    21   100    99    1
    22    64    65   ar
    23    50    49    1
    24    50    51    2
    25    49    52    1
    26    75    76    1
    27    89    88    2
    28    83    84    2
    29    83    85   am
    30    68    67   ar
    31   104   105    2
    32   104   103    1
    33    99    96    1
    34    99   101    1
    35    65    67   ar
    36    77    76    1
    37    54    56   ar
    38    54    53   ar
    39   103   106    1
    40   103   102    1
    41    52    53    1
    42    88    95   am
    43    88    87    1
    44    56    58   ar
    45   106   107    1
    46    86    87    1
    47    96    95    1
    48    96    97    1
    49    53    55   ar
    50    58    57   ar
    51    87    90    1
    52    55    57   ar
    53   102    97   am
    54   102   108    1
    55   107   108    1
    56    97    98    2
    57   109   110    1
    58    90    91    1
    59    91    92    1
    60   110   111    1
    61   110   113    1
    62   118   111   am
    63   118   119    1
    64     1     2    1
    65   111   112    2
    66   119   120    1
    67   119   122    1
    68     6     7    1
    69     6     5    1
    70   113   114    1
    71     7     8    1
    72   121   120    2
    73    40    39    1
    74   120   124   am
    75   116   115   ar
    76    39    38    1
    77   122   123    1
    78    92    94   am
    79    92    93    2
    80     5     2    1
    81   127   126    2
    82     2     3    1
    83    32    31    2
    84   126   125    1
    85     9     3   am
    86     9    10    1
    87    37    38    1
    88    13    10    1
    89    13    14    1
    90   124   125    1
    91    31    30    1
    92   114   115    1
    93   115   117   ar
    94    12    11    2
    95    38    41    1
    96     3     4    2
    97    10    11    1
    98   125   128    1
    99    11    15   am
   100    33    30    1
   101    33    34    1
   102    41    42    1
   103    30    29    1
   104   128   129    1
   105    29    17   am
   106    42    43    1
   107    18    17    2
   108    15    16    1
   109    17    16    1
   110    34    36   am
   111    34    35    2
   112    16    19    1
   113    43    44    1
   114   129   130    1
   115   150   149    1
   116    46    45    1
   117    44    45    2
   118    19    20    1
   119    45    47    1
   120   130   131    1
   121   133   132    1
   122   149   148    1
   123   146   145    2
   124    20    21   ar
   125    20    22   ar
   126   131   132    2
   127   132   134    1
   128    21    23   ar
   129   148   147    1
   130    22    25   ar
   131    22    24   ar
   132   147   144    1
   133    25    27   ar
   134   142   140    1
   135   145   144    1
   136    23    24   ar
   137    24    26   ar
   138    27    28   ar
   139   144   143    1
   140   141   139    1
   141    26    28   ar
   142   140   139    1
   143   138   137    1
   144   139   136    1
   145   136   137    1
   146   136   135    1
