@<TRIPOS>MOLECULE
tmp/1byhA00.pdb
 148 145 0 0 0
SMALL
GASTEIGER

@<TRIPOS>ATOM
      1  N         10.6940   19.7960   -7.9860 N.3    24  TYR24      -0.1227
      2  CA         9.7060   20.0980   -6.9880 C.3    24  TYR24       0.1736
      3  C         10.3990   20.8450   -5.8310 C.2    24  TYR24       0.2596
      4  O         11.6280   20.7710   -5.7270 O.2    24  TYR24      -0.2718
      5  CB         9.0260   18.7440   -6.6420 C.3    24  TYR24       0.0548
      6  CG         9.8040   17.8150   -5.7600 C.ar   24  TYR24      -0.0200
      7  CD1       10.8140   16.9620   -6.1740 C.ar   24  TYR24      -0.0009
      8  CD2        9.4840   17.9310   -4.4580 C.ar   24  TYR24      -0.0009
      9  CE1       11.5100   16.2260   -5.2320 C.ar   24  TYR24       0.0417
     10  CE2       10.1590   17.2180   -3.5330 C.ar   24  TYR24       0.0417
     11  CZ        11.1550   16.3820   -3.9060 C.ar   24  TYR24       0.1957
     12  OH        11.7130   15.7270   -2.8430 O.3    24  TYR24      -0.2866
     13  N          9.6730   21.6600   -5.0850 N.am   25  SER25      -0.1938
     14  CA        10.1130   22.3790   -3.8860 C.3    25  SER25       0.2055
     15  C          9.5590   21.6850   -2.6160 C.2    25  SER25       0.2643
     16  O          8.3640   21.3680   -2.6540 O.2    25  SER25      -0.2714
     17  CB         9.6170   23.8650   -3.8670 C.3    25  SER25       0.2130
     18  OG        10.0580   24.6130   -2.7370 O.3    25  SER25      -0.2179
     19  N         10.2920   21.4180   -1.4860 N.am   26  ASN26      -0.1971
     20  CA         9.7080   20.8500   -0.2680 C.3    26  ASN26       0.1688
     21  C          8.7840   21.8440    0.4080 C.2    26  ASN26       0.2292
     22  O          7.9740   21.4370    1.2440 O.2    26  ASN26      -0.2864
     23  CB        10.6870   20.4600    0.8430 C.3    26  ASN26       0.1181
     24  CG        11.3060   19.0590    0.8560 C.2    26  ASN26       0.2629
     25  OD1       12.2630   18.8240    1.5860 O.2    26  ASN26      -0.2716
     26  ND2       11.0170   18.0940   -0.0070 N.am   26  ASN26      -0.0877
     27  N         11.8590   25.8030    2.7590 N.3    30  PHE30      -0.1241
     28  CA        12.8930   25.5540    1.7770 C.3    30  PHE30       0.1605
     29  C         12.4530   26.4070    0.5920 C.2    30  PHE30       0.2264
     30  O         11.3850   26.2680   -0.0390 O.2    30  PHE30      -0.2867
     31  CB        12.9330   24.0900    1.3870 C.3    30  PHE30       0.0534
     32  CG        13.2930   22.9980    2.4040 C.ar   30  PHE30      -0.0203
     33  CD1       12.4480   22.6980    3.4780 C.ar   30  PHE30      -0.0042
     34  CD2       14.4300   22.1920    2.1950 C.ar   30  PHE30      -0.0042
     35  CE1       12.7550   21.5910    4.2730 C.ar   30  PHE30      -0.0003
     36  CE2       14.7180   21.0840    3.0190 C.ar   30  PHE30      -0.0003
     37  CZ        13.8740   20.7830    4.0650 C.ar   30  PHE30      -0.0000
     38  N         14.3970   21.8000   -6.0360 N.3    34  TRP34      -0.1241
     39  CA        15.4450   20.8270   -6.2000 C.3    34  TRP34       0.1605
     40  C         15.6730   20.5570   -7.6610 C.2    34  TRP34       0.2264
     41  O         14.7550   20.3160   -8.4510 O.2    34  TRP34      -0.2867
     42  CB        15.1400   19.4970   -5.6060 C.3    34  TRP34       0.0550
     43  CG        15.0650   19.4270   -4.1010 C.ar   34  TRP34       0.0003
     44  CD1       13.9830   18.7870   -3.6380 C.ar   34  TRP34       0.0946
     45  CD2       15.9090   19.9030   -3.0710 C.ar   34  TRP34       0.0152
     46  NE1       14.0580   18.8720   -2.3290 N.ar   34  TRP34      -0.2442
     47  CE2       15.1770   19.5140   -1.9450 C.ar   34  TRP34       0.0810
     48  CE3       17.0900   20.5870   -2.8240 C.ar   34  TRP34       0.0012
     49  CZ2       15.6030   19.7850   -0.6450 C.ar   34  TRP34       0.0191
     50  CZ3       17.5020   20.8580   -1.5220 C.ar   34  TRP34       0.0001
     51  CH2       16.7600   20.4710   -0.4530 C.ar   34  TRP34       0.0015
     52  N         19.5010   18.0720   -3.7860 N.3    63  GLU63      -0.1245
     53  CA        19.3190   16.9600   -2.8600 C.3    63  GLU63       0.1567
     54  C         19.7220   15.6040   -3.4320 C.2    63  GLU63       0.2260
     55  O         19.4000   15.3190   -4.5820 O.2    63  GLU63      -0.2867
     56  CB        17.8480   16.9320   -2.4270 C.3    63  GLU63       0.0388
     57  CG        17.5190   15.7580   -1.4950 C.3    63  GLU63       0.1160
     58  CD        16.5270   16.0320   -0.4010 C.2    63  GLU63       0.3649
     59  OE1       15.3450   16.0310   -0.6640 O.co2  63  GLU63      -0.2457
     60  OE2       16.9220   16.2400    0.7340 O.co2  63  GLU63      -0.2457
     61  N         19.6980   11.2460   -2.3570 N.3    65  ARG65      -0.1197
     62  CA        19.0430   10.3180   -1.4620 C.3    65  ARG65       0.1779
     63  C         19.2960    8.8570   -1.7770 C.2    65  ARG65       0.2305
     64  O         19.2930    8.4510   -2.9500 O.2    65  ARG65      -0.2863
     65  CB        17.6490   10.7260   -1.5860 C.2    65  ARG65      -0.0007
     66  CG        16.4730    9.9580   -1.0500 C.2    65  ARG65       0.0176
     67  CD        15.1110   10.7610   -0.9090 C.3    65  ARG65       0.2464
     68  NE        14.4390   11.1520   -2.1180 N.pl3  65  ARG65      -0.0815
     69  CZ        14.9300   12.0990   -2.9110 C.cat  65  ARG65       0.5349
     70  NH1       16.0400   12.8020   -2.6390 N.pl3  65  ARG65       0.1354
     71  NH2       14.3600   12.2470   -4.1140 N.pl3  65  ARG65       0.1354
     72  N         21.9250   13.5290    6.7370 N.3    92  PHE92      -0.1241
     73  CA        20.9850   12.9100    7.6510 C.3    92  PHE92       0.1605
     74  C         20.4250   11.5790    7.1770 C.2    92  PHE92       0.2264
     75  O         20.7820   11.0230    6.1440 O.2    92  PHE92      -0.2867
     76  CB        19.8370   13.9020    7.9650 C.3    92  PHE92       0.0534
     77  CG        18.9950   14.4220    6.8280 C.ar   92  PHE92      -0.0203
     78  CD1       19.5090   15.3870    5.9590 C.ar   92  PHE92      -0.0042
     79  CD2       17.7160   13.9300    6.6410 C.ar   92  PHE92      -0.0042
     80  CE1       18.7200   15.8560    4.9210 C.ar   92  PHE92      -0.0003
     81  CE2       16.9410   14.4160    5.5970 C.ar   92  PHE92      -0.0003
     82  CZ        17.4450   15.3710    4.7360 C.ar   92  PHE92      -0.0000
     83  N         16.5600    9.7820    6.9520 N.3    94  TYR94      -0.1241
     84  CA        15.1870   10.1720    7.0190 C.3    94  TYR94       0.1605
     85  C         14.1690    9.1320    6.5110 C.2    94  TYR94       0.2264
     86  O         14.3810    8.3410    5.5790 O.2    94  TYR94      -0.2867
     87  CB        15.0730   11.5590    6.2610 C.3    94  TYR94       0.0534
     88  CG        13.6650   12.1570    6.2690 C.ar   94  TYR94      -0.0201
     89  CD1       12.7110   11.6590    5.3520 C.ar   94  TYR94      -0.0009
     90  CD2       13.3040   13.0700    7.2430 C.ar   94  TYR94      -0.0009
     91  CE1       11.3910   12.0450    5.4200 C.ar   94  TYR94       0.0417
     92  CE2       11.9810   13.4520    7.2990 C.ar   94  TYR94       0.0417
     93  CZ        11.0370   12.9380    6.4080 C.ar   94  TYR94       0.1957
     94  OH         9.7040   13.2600    6.5270 O.3    94  TYR94      -0.2866
     95  N          5.7820   10.3760    4.1890 N.3    98  ALA98      -0.1231
     96  CA         6.3110   10.5500    2.8470 C.3    98  ALA98       0.1694
     97  C          6.7050    9.2010    2.2280 C.2    98  ALA98       0.2592
     98  O          6.6290    8.9880    1.0380 O.2    98  ALA98      -0.2718
     99  CB         7.5290   11.5200    3.0050 C.3    98  ALA98       0.0304
    100  N          7.1760    8.3100    3.1010 N.am   99  HIS99      -0.1976
    101  CA         7.7170    6.9810    2.8510 C.3    99  HIS99       0.1656
    102  C          6.8240    5.9380    3.4750 C.2    99  HIS99       0.2291
    103  O          7.1370    4.7650    3.4210 O.2    99  HIS99      -0.2864
    104  CB         9.0940    6.8430    3.4790 C.3    99  HIS99       0.0771
    105  CG        10.0040    7.9910    3.0760 C.ar   99  HIS99       0.0820
    106  ND1       10.7240    8.1270    1.9660 N.ar   99  HIS99      -0.2267
    107  CD2       10.1590    9.1440    3.7790 C.ar   99  HIS99       0.1154
    108  CE1       11.3010    9.2980    1.9490 C.ar   99  HIS99       0.1986
    109  NE2       10.9380    9.8850    3.0550 N.ar   99  HIS99      -0.2212
    110  N          7.9650    9.6390   11.2100 N.3   103  TRP103     -0.1241
    111  CA         9.0600   10.4960   10.8200 C.3   103  TRP103      0.1605
    112  C         10.1800   10.3620   11.8570 C.2   103  TRP103      0.2264
    113  O         10.1310   10.8530   12.9910 O.2   103  TRP103     -0.2867
    114  CB         8.5350   11.9610   10.6860 C.3   103  TRP103      0.0550
    115  CG         9.5950   13.0730   10.5700 C.ar  103  TRP103      0.0003
    116  CD1       10.8840   12.7830   10.2270 C.ar  103  TRP103      0.0946
    117  CD2        9.4470   14.3950   10.8560 C.ar  103  TRP103      0.0152
    118  NE1       11.5300   13.8750   10.3210 N.ar  103  TRP103     -0.2442
    119  CE2       10.7220   14.8730   10.6800 C.ar  103  TRP103      0.0810
    120  CE3        8.4600   15.2490   11.2380 C.ar  103  TRP103      0.0012
    121  CZ2       11.0650   16.1930   10.8740 C.ar  103  TRP103      0.0191
    122  CZ3        8.7800   16.5800   11.4420 C.ar  103  TRP103      0.0001
    123  CH2       10.0690   17.0470   11.2630 C.ar  103  TRP103      0.0015
    124  N         14.5090   10.7220   11.9420 N.3   105  GLU105     -0.1245
    125  CA        15.6660   11.3490   11.3540 C.3   105  GLU105      0.1567
    126  C         16.7160   11.4920   12.4420 C.2   105  GLU105      0.2260
    127  O         16.3310   11.6980   13.5840 O.2   105  GLU105     -0.2867
    128  CB        15.2350   12.7150   10.8210 C.3   105  GLU105      0.0388
    129  CG        16.0890   13.6770    9.9710 C.3   105  GLU105      0.1160
    130  CD        15.2760   14.9410    9.6670 C.2   105  GLU105      0.3649
    131  OE1       14.0840   15.0670    9.9100 O.co2 105  GLU105     -0.2457
    132  OE2       15.8700   16.0720    8.9990 O.co2 105  GLU105     -0.2457
    133  N         20.6080   11.0510    3.1840 N.3   180  MET180     -0.1245
    134  CA        20.2870   12.2700    2.4620 C.3   180  MET180      0.1570
    135  C         21.2550   13.4080    2.7660 C.2   180  MET180      0.2261
    136  O         21.6450   13.6930    3.8930 O.2   180  MET180     -0.2867
    137  CB        18.8620   12.6780    2.8180 C.3   180  MET180      0.0387
    138  CG        17.9150   11.7130    2.1630 C.3   180  MET180      0.0595
    139  SD        16.1540   11.6900    2.5590 S.3   180  MET180     -0.1393
    140  CE        15.8960   13.1000    1.5650 C.3   180  MET180      0.0692
    141  N         22.0070   17.5370    1.4050 N.3   182  ASN182     -0.1240
    142  CA        21.4750   18.6530    0.6230 C.3   182  ASN182      0.1653
    143  C         22.0410   20.0180    1.0240 C.2   182  ASN182      0.2266
    144  O         22.7740   20.1690    2.0090 O.2   182  ASN182     -0.2867
    145  CB        19.8850   18.6680    0.6870 C.3   182  ASN182      0.1155
    146  CG        19.1590   18.8230    2.0050 C.2   182  ASN182      0.2627
    147  OD1       19.6810   19.4440    2.9250 O.2   182  ASN182     -0.2716
    148  ND2       17.9100   18.3850    2.1290 N.am  182  ASN182     -0.0877
@<TRIPOS>BOND
     1    41    40    2
     2     1     2    1
     3    40    39    1
     4     2     5    1
     5     2     3    1
     6     5     6    1
     7    39    38    1
     8    39    42    1
     9     7     6   ar
    10     7     9   ar
    11     3     4    2
    12     3    13   am
    13     6     8   ar
    14    42    43    1
    15     9    11   ar
    16    13    14    1
    17    55    54    2
    18     8    10   ar
    19    71    69    1
    20    43    44   ar
    21    43    45   ar
    22    11    10   ar
    23    11    12    1
    24    14    17    1
    25    14    15    1
    26    17    18    1
    27    52    53    1
    28    44    46   ar
    29    54    53    1
    30    45    48   ar
    31    45    47   ar
    32    64    63    2
    33    69    70    1
    34    69    68    2
    35    53    56    1
    36    48    50   ar
    37    16    15    2
    38    15    19   am
    39    56    57    1
    40    61    62    1
    41    46    47   ar
    42    68    67    1
    43    47    49   ar
    44    63    62    1
    45    65    62    1
    46    65    66    2
    47    50    51   ar
    48    57    58    1
    49    19    20    1
    50    66    67    1
    51    59    58   ar
    52    49    51   ar
    53    58    60   ar
    54    20    21    1
    55    20    23    1
    56    30    29    2
    57    26    24   am
    58    21    22    2
    59    29    28    1
    60   142   145    1
    61   142   143    1
    62   142   141    1
    63   145   146    1
    64    23    24    1
    65    24    25    2
    66   143   144    2
    67    98    97    2
    68    31    28    1
    69    31    32    1
    70   140   139    1
    71    28    27    1
    72   108   106   ar
    73   108   109   ar
    74   106   105   ar
    75   146   148   am
    76   146   147    2
    77   138   139    1
    78   138   137    1
    79    34    32   ar
    80    34    36   ar
    81    97    96    1
    82    97   100   am
    83    32    33   ar
    84   134   135    1
    85   134   137    1
    86   134   133    1
    87   135   136    2
    88    96    99    1
    89    96    95    1
    90   101   100    1
    91   101   102    1
    92   101   104    1
    93    36    37   ar
    94   109   107   ar
    95   105   104    1
    96   105   107   ar
    97   103   102    2
    98    33    35   ar
    99    37    35   ar
   100    82    80   ar
   101    82    81   ar
   102    80    78   ar
   103    89    91   ar
   104    89    88   ar
   105    91    93   ar
   106    86    85    2
   107    81    79   ar
   108    78    77   ar
   109    75    74    2
   110    87    88    1
   111    87    84    1
   112    88    90   ar
   113    93    94    1
   114    93    92   ar
   115    85    84    1
   116    79    77   ar
   117    72    73    1
   118    77    76    1
   119    83    84    1
   120    74    73    1
   121    90    92   ar
   122    73    76    1
   123   132   130   ar
   124   130   131   ar
   125   130   129    1
   126   129   128    1
   127   116   118   ar
   128   116   115   ar
   129   118   119   ar
   130   115   114    1
   131   115   117   ar
   132   119   117   ar
   133   119   121   ar
   134   114   111    1
   135   111   110    1
   136   111   112    1
   137   128   125    1
   138   117   120   ar
   139   121   123   ar
   140   120   122   ar
   141   123   122   ar
   142   125   124    1
   143   125   126    1
   144   112   113    2
   145   126   127    2
