@<TRIPOS>MOLECULE
tmp/1byuB00.pdb
 135 128 0 0 0
SMALL
GASTEIGER

@<TRIPOS>ATOM
      1  N         30.4630  -10.9600   10.3290 N.3    18  GLY18      -0.1210
      2  CA        29.8290  -12.0900    9.6420 C.3    18  GLY18       0.1956
      3  C         28.6940  -12.6750   10.4920 C.2    18  GLY18       0.2612
      4  O         28.7920  -12.6800   11.7230 O.2    18  GLY18      -0.2717
      5  N         27.5410  -12.9940    9.8670 N.am   19  GLY19      -0.1942
      6  CA        26.4000  -13.5280   10.6110 C.3    19  GLY19       0.2014
      7  C         25.4100  -12.5050   11.1330 C.2    19  GLY19       0.2640
      8  O         24.3610  -12.8780   11.7180 O.2    19  GLY19      -0.2714
      9  N         25.6060  -11.2100   10.8560 N.am   20  THR20      -0.1936
     10  CA        24.7530  -10.1410   11.3220 C.3    20  THR20       0.2028
     11  C         23.4990   -9.9080   10.4860 C.2    20  THR20       0.2643
     12  O         22.5510   -9.2970   11.0030 O.2    20  THR20      -0.2714
     13  CB        25.5270   -8.8380   11.5760 C.3    20  THR20       0.1808
     14  OG1       26.1870   -8.3500   10.3860 O.3    20  THR20      -0.2208
     15  CG2       26.6050   -9.0660   12.6450 C.3    20  THR20       0.0379
     16  N         23.3950  -10.4020    9.2610 N.am   21  GLY21      -0.1939
     17  CA        22.1890  -10.3000    8.4400 C.3    21  GLY21       0.2014
     18  C         22.3000   -9.3820    7.2430 C.2    21  GLY21       0.2639
     19  O         21.2770   -8.9040    6.7170 O.2    21  GLY21      -0.2714
     20  N         23.5120   -9.0610    6.7930 N.am   22  LYS22      -0.1963
     21  CA        23.7480   -8.1040    5.7050 C.3    22  LYS22       0.1728
     22  C         23.1820   -8.5590    4.3730 C.2    22  LYS22       0.2617
     23  O         22.4750   -7.8300    3.6710 O.2    22  LYS22      -0.2715
     24  CB        25.2920   -7.9220    5.5590 C.3    22  LYS22       0.0311
     25  CG        25.9540   -7.3640    6.8090 C.3    22  LYS22       0.0038
     26  CD        27.3720   -6.8590    6.5950 C.3    22  LYS22       0.0206
     27  CE        28.3570   -7.9750    6.2470 C.3    22  LYS22       0.1093
     28  NZ        28.4150   -9.0230    7.3190 N.3    22  LYS22      -0.1314
     29  N         23.4870   -9.8150    3.9900 N.am   23  THR23      -0.1937
     30  CA        22.9680  -10.4660    2.7960 C.3    23  THR23       0.2028
     31  C         21.4550  -10.6090    2.8170 C.2    23  THR23       0.2642
     32  O         20.7910  -10.1310    1.8690 O.2    23  THR23      -0.2714
     33  CB        23.6880  -11.8030    2.5540 C.3    23  THR23       0.1808
     34  OG1       25.0620  -11.4870    2.2670 O.3    23  THR23      -0.2208
     35  CG2       23.0920  -12.6180    1.4090 C.3    23  THR23       0.0379
     36  N         20.8640  -11.0920    3.9000 N.am   24  THR24      -0.1950
     37  CA        19.4290  -11.1420    4.1390 C.3    24  THR24       0.1897
     38  C         18.7260   -9.7900    3.9940 C.2    24  THR24       0.2313
     39  O         17.6450   -9.7890    3.3530 O.2    24  THR24      -0.2863
     40  CB        19.0990  -11.7440    5.5340 C.3    24  THR24       0.1794
     41  OG1       19.6790  -13.0620    5.6550 O.3    24  THR24      -0.2208
     42  CG2       17.6020  -11.9080    5.7930 C.3    24  THR24       0.0378
     43  N         27.6080   -5.7180   -1.5350 N.3    64  ASP64      -0.1225
     44  CA        27.5040   -6.7680   -0.5010 C.3    64  ASP64       0.1805
     45  C         28.6860   -7.7510   -0.6380 C.2    64  ASP64       0.2598
     46  O         28.9860   -8.1490   -1.7660 O.2    64  ASP64      -0.2718
     47  CB        26.2340   -7.6040   -0.6440 C.3    64  ASP64       0.1424
     48  CG        25.9100   -8.6000    0.4420 C.2    64  ASP64       0.3668
     49  OD1       26.1670   -8.3600    1.6470 O.co2  64  ASP64      -0.2456
     50  OD2       25.3100   -9.6840    0.1480 O.co2  64  ASP64      -0.2456
     51  N         29.3590   -8.0850    0.4620 N.am   65  THR65      -0.1953
     52  CA        30.5060   -8.9610    0.3970 C.3    65  THR65       0.1897
     53  C         30.0850  -10.3970    0.0370 C.2    65  THR65       0.2313
     54  O         28.9150  -10.7850    0.1800 O.2    65  THR65      -0.2863
     55  CB        31.2990   -9.0860    1.7180 C.3    65  THR65       0.1794
     56  OG1       30.5460   -9.8570    2.6790 O.3    65  THR65      -0.2208
     57  CG2       31.7070   -7.7440    2.2910 C.3    65  THR65       0.0378
     58  N         34.7410  -10.8930    5.3840 N.3    69  GLU69      -0.1231
     59  CA        34.7310  -10.2440    6.6770 C.3    69  GLU69       0.1699
     60  C         34.7670  -11.1820    7.8740 C.2    69  GLU69       0.2592
     61  O         35.2760  -10.8550    8.9540 O.2    69  GLU69      -0.2718
     62  CB        33.5160   -9.2960    6.8120 C.3    69  GLU69       0.0402
     63  CG        32.1660   -9.9340    7.1250 C.3    69  GLU69       0.1161
     64  CD        31.4290  -10.4500    5.8990 C.2    69  GLU69       0.3649
     65  OE1       31.9950  -10.3530    4.7880 O.co2  69  GLU69      -0.2457
     66  OE2       30.2990  -11.0030    6.0020 O.co2  69  GLU69      -0.2457
     67  N         34.3720  -12.4530    7.7700 N.am   70  LYS70      -0.1980
     68  CA        34.4540  -13.5270    8.7180 C.3    70  LYS70       0.1596
     69  C         35.8870  -13.9300    9.0870 C.2    70  LYS70       0.2287
     70  O         36.1020  -14.5750   10.1230 O.2    70  LYS70      -0.2864
     71  CB        33.7640  -14.7920    8.1510 C.3    70  LYS70       0.0298
     72  CG        32.3430  -14.5160    7.6550 C.3    70  LYS70       0.0038
     73  CD        31.5480  -15.8060    7.4600 C.3    70  LYS70       0.0206
     74  CE        30.0860  -15.5140    7.1460 C.3    70  LYS70       0.1093
     75  NZ        29.2900  -16.7460    6.8640 N.3    70  LYS70      -0.1314
     76  N         20.1220   -5.1080   13.8530 N.3   121  ASN121     -0.1225
     77  CA        19.2460   -6.0780   13.2140 C.3   121  ASN121      0.1785
     78  C         18.7210   -7.1160   14.1880 C.2   121  ASN121      0.2600
     79  O         19.3100   -7.4190   15.2300 O.2   121  ASN121     -0.2717
     80  CB        19.9850   -6.8090   12.0500 C.3   121  ASN121      0.1169
     81  CG        19.1340   -7.6040   11.0930 C.2   121  ASN121      0.2627
     82  OD1       17.9260   -7.3450   10.9290 O.2   121  ASN121     -0.2716
     83  ND2       19.6510   -8.6700   10.4870 N.am  121  ASN121     -0.0877
     84  N         17.6560   -7.8200   13.7920 N.am  122  LYS122     -0.1934
     85  CA        17.0700   -8.9720   14.4240 C.3   122  LYS122      0.1812
     86  C         16.2960   -8.6050   15.6760 C.2   122  LYS122      0.2332
     87  O         16.0610   -9.4570   16.5500 O.2   122  LYS122     -0.2860
     88  CB        18.0360  -10.1360   14.6780 C.2   122  LYS122     -0.0016
     89  CG        18.8070  -10.7490   13.5200 C.2   122  LYS122     -0.0270
     90  CD        19.8300  -11.7940   13.9010 C.3   122  LYS122      0.0462
     91  CE        20.8190  -12.1260   12.7860 C.3   122  LYS122      0.1140
     92  NZ        21.8040  -13.1760   13.2470 N.3   122  LYS122     -0.1310
     93  N         12.9920   -8.8190   15.9320 N.3   124  ASP124     -0.1225
     94  CA        11.9400   -9.8040   16.0150 C.3   124  ASP124      0.1805
     95  C         12.2700  -10.9290   17.0190 C.2   124  ASP124      0.2597
     96  O         11.3120  -11.5860   17.4640 O.2   124  ASP124     -0.2718
     97  CB        11.6780  -10.4320   14.6370 C.3   124  ASP124      0.1424
     98  CG        12.9400  -11.0920   14.0840 C.2   124  ASP124      0.3668
     99  OD1       13.8310  -10.3570   13.6160 O.co2 124  ASP124     -0.2456
    100  OD2       13.0440  -12.3330   14.1490 O.co2 124  ASP124     -0.2456
    101  N         13.5290  -11.2390   17.3210 N.am  125  ILE125     -0.1980
    102  CA        13.9090  -12.2630   18.3010 C.3   125  ILE125      0.1595
    103  C         13.5030  -11.8080   19.7120 C.2   125  ILE125      0.2287
    104  O         13.8300  -10.7090   20.1730 O.2   125  ILE125     -0.2864
    105  CB        15.4120  -12.6350   18.2380 C.3   125  ILE125      0.0276
    106  CG1       15.8050  -13.2040   16.8610 C.3   125  ILE125      0.0022
    107  CG2       15.7450  -13.6910   19.3260 C.3   125  ILE125      0.0022
    108  CD1       17.2790  -13.5770   16.6760 C.3   125  ILE125      0.0001
    109  N         14.4790   -5.0470   11.3780 N.3   149  SER149     -0.1202
    110  CA        14.2860   -6.4790   11.2600 C.3   149  SER149      0.2020
    111  C         14.1800   -6.9130    9.7900 C.2   149  SER149      0.2619
    112  O         13.1050   -6.8760    9.1540 O.2   149  SER149     -0.2717
    113  CB        13.0740   -7.0110   12.0570 C.3   149  SER149      0.2103
    114  OG        12.7860   -8.3860   11.6810 O.3   149  SER149     -0.2182
    115  N         15.2620   -7.4620    9.2350 N.am  150  ALA150     -0.1965
    116  CA        15.3150   -7.8880    7.8440 C.3   150  ALA150      0.1728
    117  C         14.3020   -8.9510    7.4570 C.2   150  ALA150      0.2616
    118  O         13.5000   -8.7170    6.5190 O.2   150  ALA150     -0.2715
    119  CB        16.7280   -8.3010    7.4400 C.3   150  ALA150      0.0334
    120  N         14.0640  -10.0120    8.2300 N.am  151  LYS151     -0.1977
    121  CA        13.0320  -10.9910    7.9570 C.3   151  LYS151      0.1596
    122  C         11.5930  -10.5170    7.9460 C.2   151  LYS151      0.2287
    123  O         10.7390  -11.2820    7.4130 O.2   151  LYS151     -0.2864
    124  CB        13.1420  -12.2160    8.9190 C.3   151  LYS151      0.0298
    125  CG        14.4060  -13.0430    8.6670 C.3   151  LYS151      0.0038
    126  CD        14.3530  -13.7440    7.3260 C.3   151  LYS151      0.0206
    127  CE        15.4310  -14.8070    7.1590 C.3   151  LYS151      0.1093
    128  NZ        15.5020  -15.7330    8.3200 N.3   151  LYS151     -0.1314
    129  N          8.3160  -13.5990    9.1430 N.3   186  VAL186     -0.1245
    130  CA         7.9660  -13.6560   10.5700 C.3   186  VAL186      0.1561
    131  C          7.2170  -12.3660   10.9180 C.2   186  VAL186      0.2260
    132  O          7.4340  -11.3700   10.2060 O.2   186  VAL186     -0.2867
    133  CB         9.1970  -13.8450   11.4590 C.3   186  VAL186      0.0252
    134  CG1       10.1780  -12.6750   11.3580 C.3   186  VAL186      0.0019
    135  CG2        8.8060  -14.0450   12.9340 C.3   186  VAL186      0.0019
@<TRIPOS>BOND
     1    46    45    2
     2    43    44    1
     3    47    44    1
     4    47    48    1
     5    45    44    1
     6    45    51   am
     7    53    54    2
     8    53    52    1
     9    50    48   ar
    10    52    51    1
    11    52    55    1
    12    48    49   ar
    13    35    33    1
    14    55    57    1
    15    55    56    1
    16    32    31    2
    17    34    33    1
    18    33    30    1
    19    30    31    1
    20    30    29    1
    21    31    36   am
    22    39    38    2
    23    23    22    2
    24    36    37    1
    25    29    22   am
    26    38    37    1
    27    37    40    1
    28    22    21    1
    29    65    64   ar
    30    58    59    1
    31    40    41    1
    32    40    42    1
    33    24    21    1
    34    24    25    1
    35    21    20    1
    36    64    66   ar
    37    64    63    1
    38    27    26    1
    39    27    28    1
    40   118   117    2
    41    26    25    1
    42    59    62    1
    43    59    60    1
    44    19    18    2
    45    20    18   am
    46    62    63    1
    47    75    74    1
    48    74    73    1
    49   127   126    1
    50   127   128    1
    51    18    17    1
    52   126   125    1
    53   123   122    2
    54   119   116    1
    55   117   116    1
    56   117   120   am
    57    73    72    1
    58    72    71    1
    59    67    60   am
    60    67    68    1
    61   116   115    1
    62    60    61    2
    63   122   121    1
    64   121   120    1
    65   121   124    1
    66    71    68    1
    67    17    16    1
    68   125   124    1
    69    68    69    1
    70    69    70    2
    71   129   130    1
    72   112   111    2
    73   115   111   am
    74    16    11   am
    75     2     1    1
    76     2     3    1
    77   111   110    1
    78     5     3   am
    79     5     6    1
    80   132   131    2
    81    14    13    1
    82    11    12    2
    83    11    10    1
    84    83    81   am
    85     3     4    2
    86   130   131    1
    87   130   133    1
    88     6     7    1
    89     9     7   am
    90     9    10    1
    91    82    81    2
    92    81    80    1
    93     7     8    2
    94   110   109    1
    95   110   113    1
    96    10    13    1
    97   134   133    1
    98   133   135    1
    99    13    15    1
   100   114   113    1
   101    80    77    1
   102    91    92    1
   103    91    90    1
   104    77    76    1
   105    77    78    1
   106    89    90    1
   107    89    88    2
   108    99    98   ar
   109    84    78   am
   110    84    85    1
   111    98   100   ar
   112    98    97    1
   113    78    79    2
   114    85    88    1
   115    85    86    1
   116    97    94    1
   117    86    87    2
   118    93    94    1
   119    94    95    1
   120   108   106    1
   121   106   105    1
   122    95   101   am
   123    95    96    2
   124   101   102    1
   125   105   102    1
   126   105   107    1
   127   102   103    1
   128   103   104    2
