@<TRIPOS>MOLECULE
tmp/1bz1A00.pdb
 217 206 0 0 0
SMALL
GASTEIGER

@<TRIPOS>ATOM
      1  N         23.4320    7.5080   29.6970 N.3    33  MET33      -0.1245
      2  CA        21.9740    7.6960   29.8480 C.3    33  MET33       0.1570
      3  C         21.1540    6.6490   29.1220 C.2    33  MET33       0.2261
      4  O         20.1710    6.0840   29.6260 O.2    33  MET33      -0.2867
      5  CB        21.6340    9.1170   29.4200 C.3    33  MET33       0.0387
      6  CG        20.1580    9.4230   29.5700 C.3    33  MET33       0.0595
      7  SD        19.7650   11.0390   28.8820 S.3    33  MET33      -0.1393
      8  CE        19.7420   10.6680   27.1040 C.3    33  MET33       0.0692
      9  N         14.8430    6.9330   27.8350 N.3    40  THR40      -0.1218
     10  CA        15.2870    8.1470   27.1380 C.3    40  THR40       0.1862
     11  C         15.5230    7.8890   25.6440 C.2    40  THR40       0.2287
     12  O         15.5280    8.8420   24.8620 O.2    40  THR40      -0.2866
     13  CB        16.5850    8.7220   27.8350 C.3    40  THR40       0.1770
     14  OG1       17.6230    7.7100   27.7130 O.3    40  THR40      -0.2211
     15  CG2       16.3140    9.0120   29.3350 C.3    40  THR40       0.0375
     16  N         13.2070    9.1940   22.6180 N.3    43  TYR43      -0.1227
     17  CA        13.4080   10.4680   21.9310 C.3    43  TYR43       0.1736
     18  C         14.4540   10.3860   20.7850 C.2    43  TYR43       0.2595
     19  O         14.5790   11.4310   20.1400 O.2    43  TYR43      -0.2718
     20  CB        13.8520   11.5690   22.9080 C.3    43  TYR43       0.0548
     21  CG        12.7510   11.8140   23.9330 C.ar   43  TYR43      -0.0200
     22  CD1       11.6630   12.5940   23.5820 C.ar   43  TYR43      -0.0009
     23  CD2       12.8480   11.2070   25.1930 C.ar   43  TYR43      -0.0009
     24  CE1       10.6120   12.7780   24.5160 C.ar   43  TYR43       0.0417
     25  CE2       11.8220   11.4190   26.1300 C.ar   43  TYR43       0.0417
     26  CZ        10.7420   12.2050   25.7730 C.ar   43  TYR43       0.1957
     27  OH         9.7590   12.4550   26.7010 O.3    43  TYR43      -0.2866
     28  N         15.0810    9.2620   20.6010 N.am   44  PHE44      -0.1976
     29  CA        16.1300    9.0810   19.5620 C.3    44  PHE44       0.1639
     30  C         15.8670    7.8730   18.6690 C.2    44  PHE44       0.2290
     31  O         16.8050    7.1080   18.3870 O.2    44  PHE44      -0.2864
     32  CB        17.4980    9.0600   20.2340 C.3    44  PHE44       0.0560
     33  CG        17.9050   10.3210   20.9400 C.ar   44  PHE44      -0.0200
     34  CD1       17.5450   10.4730   22.3090 C.ar   44  PHE44      -0.0042
     35  CD2       18.6240   11.3450   20.3480 C.ar   44  PHE44      -0.0042
     36  CE1       17.9000   11.6300   22.9830 C.ar   44  PHE44      -0.0003
     37  CE2       19.0210   12.5100   21.0260 C.ar   44  PHE44      -0.0003
     38  CZ        18.6470   12.6460   22.3930 C.ar   44  PHE44      -0.0000
     39  N         15.3710    7.8570   15.6460 N.3    46  HIS46      -0.1226
     40  CA        15.9470    8.2200   14.3310 C.3    46  HIS46       0.1752
     41  C         17.4660    8.1480   14.2980 C.2    46  HIS46       0.2596
     42  O         18.0940    8.5840   13.3090 O.2    46  HIS46      -0.2718
     43  CB        15.5210    9.6790   13.9100 C.3    46  HIS46       0.0759
     44  CG        15.8610   10.7670   14.8770 C.ar   46  HIS46       0.0818
     45  ND1       15.4530   10.7810   16.2000 N.ar   46  HIS46      -0.2268
     46  CD2       16.6160   11.8920   14.6940 C.ar   46  HIS46       0.1154
     47  CE1       15.9480   11.8650   16.7800 C.ar   46  HIS46       0.1986
     48  NE2       16.6530   12.5560   15.9040 N.ar   46  HIS46      -0.2212
     49  N         18.0450    7.7090   15.4030 N.am   47  PHE47      -0.1976
     50  CA        19.5030    7.6810   15.5670 C.3    47  PHE47       0.1639
     51  C         19.9950    6.2390   15.5890 C.2    47  PHE47       0.2290
     52  O         19.2530    5.3690   16.0360 O.2    47  PHE47      -0.2864
     53  CB        19.8950    8.3480   16.9080 C.3    47  PHE47       0.0560
     54  CG        20.2400    9.7800   16.9880 C.ar   47  PHE47      -0.0200
     55  CD1       19.6450   10.7620   16.2190 C.ar   47  PHE47      -0.0042
     56  CD2       21.2200   10.1940   17.9140 C.ar   47  PHE47      -0.0042
     57  CE1       20.0010   12.1140   16.3080 C.ar   47  PHE47      -0.0003
     58  CE2       21.5780   11.5230   18.0330 C.ar   47  PHE47      -0.0003
     59  CZ        20.9930   12.5040   17.2340 C.ar   47  PHE47      -0.0000
     60  N         25.9690   14.6420   18.3980 N.3    59  HIS59      -0.1241
     61  CA        24.9800   15.1550   19.3510 C.3    59  HIS59       0.1621
     62  C         25.6700   15.5080   20.6600 C.2    59  HIS59       0.2264
     63  O         25.4210   16.6210   21.2200 O.2    59  HIS59      -0.2867
     64  CB        23.7790   14.1740   19.4460 C.3    59  HIS59       0.0745
     65  CG        22.6600   14.8990   20.1590 C.ar   59  HIS59       0.0817
     66  ND1       22.1090   16.0550   19.7390 N.ar   59  HIS59      -0.2268
     67  CD2       22.1060   14.6220   21.3690 C.ar   59  HIS59       0.1154
     68  CE1       21.2240   16.4640   20.6340 C.ar   59  HIS59       0.1986
     69  NE2       21.2090   15.6180   21.6410 N.ar   59  HIS59      -0.2212
     70  N         27.2650   18.9090   20.3410 N.3    62  LYS62      -0.1231
     71  CA        26.2950   20.0080   20.3700 C.3    62  LYS62       0.1693
     72  C         25.8500   20.2140   21.8300 C.2    62  LYS62       0.2591
     73  O         25.7120   21.3910   22.1950 O.2    62  LYS62      -0.2718
     74  CB        25.0770   19.8120   19.4950 C.3    62  LYS62       0.0285
     75  CG        25.3280   19.6610   17.9850 C.3    62  LYS62       0.0035
     76  CD        24.0290   19.4900   17.2240 C.3    62  LYS62       0.0206
     77  CE        23.7780   18.1970   16.5160 C.3    62  LYS62       0.1093
     78  NZ        22.4420   17.5780   16.8250 N.3    62  LYS62      -0.1314
     79  N         25.6810   19.1100   22.5360 N.am   63  VAL63      -0.1980
     80  CA        25.2880   19.2630   23.9740 C.3    63  VAL63       0.1595
     81  C         26.4210   19.9660   24.7340 C.2    63  VAL63       0.2287
     82  O         26.0970   20.9480   25.4740 O.2    63  VAL63      -0.2864
     83  CB        24.7290   17.9840   24.5790 C.3    63  VAL63       0.0276
     84  CG1       24.4230   18.1210   26.0840 C.3    63  VAL63       0.0022
     85  CG2       23.4330   17.5540   23.8850 C.3    63  VAL63       0.0022
     86  N         26.7410   23.7700   24.0870 N.3    66  ALA66      -0.1231
     87  CA        25.6400   24.4930   24.7300 C.3    66  ALA66       0.1694
     88  C         26.0020   24.7120   26.2340 C.2    66  ALA66       0.2591
     89  O         25.7870   25.8160   26.7360 O.2    66  ALA66      -0.2718
     90  CB        24.3000   23.7920   24.5590 C.3    66  ALA66       0.0304
     91  N         26.5620   23.6860   26.8470 N.am   67  LEU67      -0.1980
     92  CA        26.9710   23.7970   28.2780 C.3    67  LEU67       0.1596
     93  C         28.1000   24.8130   28.3700 C.2    67  LEU67       0.2287
     94  O         28.1110   25.6330   29.2890 O.2    67  LEU67      -0.2864
     95  CB        27.3240   22.4180   28.7700 C.3    67  LEU67       0.0297
     96  CG        26.3950   21.5800   29.6100 C.3    67  LEU67       0.0022
     97  CD1       24.9670   22.0560   29.6040 C.3    67  LEU67       0.0001
     98  CD2       26.5570   20.1230   29.2260 C.3    67  LEU67       0.0001
     99  N         20.6380   30.7100   26.3290 N.3    81  LEU81      -0.1245
    100  CA        20.0110   29.4850   25.8300 C.3    81  LEU81       0.1561
    101  C         18.6330   29.6710   25.2350 C.2    81  LEU81       0.2260
    102  O         17.8850   28.7130   25.0200 O.2    81  LEU81      -0.2867
    103  CB        19.9760   28.5430   27.0710 C.3    81  LEU81       0.0270
    104  CG        21.3480   28.2460   27.6790 C.3    81  LEU81       0.0019
    105  CD1       21.2110   27.3430   28.8980 C.3    81  LEU81       0.0001
    106  CD2       22.2080   27.5890   26.6050 C.3    81  LEU81       0.0001
    107  N         17.5930   27.4740   22.3320 N.3    84  LEU84      -0.1245
    108  CA        17.5310   26.0680   22.7500 C.3    84  LEU84       0.1561
    109  C         16.2620   25.8240   23.5500 C.2    84  LEU84       0.2260
    110  O         15.5870   24.7930   23.4650 O.2    84  LEU84      -0.2867
    111  CB        18.8280   25.8100   23.5300 C.3    84  LEU84       0.0270
    112  CG        19.6650   24.6340   23.0990 C.3    84  LEU84       0.0019
    113  CD1       19.5270   24.2850   21.6210 C.3    84  LEU84       0.0001
    114  CD2       21.1430   24.9580   23.3800 C.3    84  LEU84       0.0001
    115  N         13.3570   25.6600   21.0980 N.3    87  LEU87      -0.1231
    116  CA        13.4410   24.3880   20.3900 C.3    87  LEU87       0.1693
    117  C         12.8810   23.2120   21.1840 C.2    87  LEU87       0.2592
    118  O         12.1520   22.3250   20.7210 O.2    87  LEU87      -0.2718
    119  CB        14.9450   24.1580   20.0510 C.3    87  LEU87       0.0284
    120  CG        15.2300   22.7780   19.4830 C.3    87  LEU87       0.0019
    121  CD1       14.4830   22.6310   18.1540 C.3    87  LEU87       0.0001
    122  CD2       16.7150   22.5340   19.2510 C.3    87  LEU87       0.0001
    123  N         13.3200   23.1930   22.4670 N.am   88  HIS88      -0.1976
    124  CA        12.8820   22.0710   23.3350 C.3    88  HIS88       0.1656
    125  C         11.3960   22.2480   23.6550 C.2    88  HIS88       0.2291
    126  O         10.6630   21.2450   23.6250 O.2    88  HIS88      -0.2864
    127  CB        13.7310   21.9020   24.6160 C.3    88  HIS88       0.0771
    128  CG        15.0810   21.3180   24.2730 C.ar   88  HIS88       0.0820
    129  ND1       16.0950   22.0820   23.7340 N.ar   88  HIS88      -0.2267
    130  CD2       15.5640   20.0720   24.3730 C.ar   88  HIS88       0.1154
    131  CE1       17.1640   21.3270   23.5070 C.ar   88  HIS88       0.1986
    132  NE2       16.8670   20.1070   23.8870 N.ar   88  HIS88      -0.2212
    133  N         10.9480   19.7210   20.0560 N.3    92  LEU92      -0.1245
    134  CA        11.3990   18.4640   20.6660 C.3    92  LEU92       0.1561
    135  C         10.3930   17.9290   21.6850 C.2    92  LEU92       0.2260
    136  O         10.1060   16.7240   21.6380 O.2    92  LEU92      -0.2867
    137  CB        12.8280   18.5780   21.1860 C.3    92  LEU92       0.0270
    138  CG        13.8490   19.1100   20.1630 C.3    92  LEU92       0.0019
    139  CD1       15.2140   19.2420   20.7640 C.3    92  LEU92       0.0001
    140  CD2       13.8230   18.1680   18.9780 C.3    92  LEU92       0.0001
    141  N         10.4910   17.3200   24.8920 N.3    94  VAL94      -0.1245
    142  CA        11.0280   16.2920   25.7740 C.3    94  VAL94       0.1561
    143  C         10.4060   16.4780   27.1800 C.2    94  VAL94       0.2260
    144  O         10.5100   17.5770   27.7130 O.2    94  VAL94      -0.2867
    145  CB        12.5740   16.4030   25.8630 C.3    94  VAL94       0.0252
    146  CG1       13.0620   15.4210   26.9170 C.3    94  VAL94       0.0019
    147  CG2       13.2120   16.2180   24.4920 C.3    94  VAL94       0.0019
    148  N         13.2260   13.9140   31.9640 N.3    98  ASN98      -0.1225
    149  CA        14.4390   13.4160   31.3130 C.3    98  ASN98       0.1785
    150  C         15.6380   14.3110   31.5540 C.2    98  ASN98       0.2597
    151  O         16.7380   13.7300   31.4930 O.2    98  ASN98      -0.2718
    152  CB        14.1600   13.1740   29.8200 C.3    98  ASN98       0.1169
    153  CG        13.0340   12.1290   29.6740 C.2    98  ASN98       0.2627
    154  OD1       11.8640   12.5170   29.4290 O.2    98  ASN98      -0.2716
    155  ND2       13.3750   10.8860   29.8520 N.am   98  ASN98      -0.0877
    156  N         15.4350   15.5740   31.8230 N.am   99  PHE99      -0.1976
    157  CA        16.5850   16.4920   32.0730 C.3    99  PHE99       0.1639
    158  C         17.4010   16.0630   33.3070 C.2    99  PHE99       0.2290
    159  O         18.6300   16.1580   33.3360 O.2    99  PHE99      -0.2864
    160  CB        16.1780   17.9740   32.1260 C.3    99  PHE99       0.0560
    161  CG        15.7100   18.4840   30.7960 C.ar   99  PHE99      -0.0200
    162  CD1       14.3980   18.2670   30.3860 C.ar   99  PHE99      -0.0042
    163  CD2       16.6360   19.1230   29.9590 C.ar   99  PHE99      -0.0042
    164  CE1       13.9880   18.6950   29.1090 C.ar   99  PHE99      -0.0003
    165  CE2       16.2340   19.5580   28.7020 C.ar   99  PHE99      -0.0003
    166  CZ        14.9240   19.3330   28.2740 C.ar   99  PHE99      -0.0000
    167  N         19.6920   13.0460   32.3140 N.3   102  LEU102     -0.1231
    168  CA        20.9070   13.4950   31.6070 C.3   102  LEU102      0.1693
    169  C         21.8440   14.2030   32.5840 C.2   102  LEU102      0.2592
    170  O         23.0780   13.9400   32.5360 O.2   102  LEU102     -0.2718
    171  CB        20.5580   14.3200   30.3690 C.3   102  LEU102      0.0284
    172  CG        21.4390   14.3820   29.1460 C.3   102  LEU102      0.0019
    173  CD1       21.5420   15.8030   28.5750 C.3   102  LEU102      0.0001
    174  CD2       22.8180   13.7720   29.2630 C.3   102  LEU102      0.0001
    175  N         21.3250   15.0960   33.4140 N.am  103  SER103     -0.1952
    176  CA        22.1830   15.8050   34.4100 C.3   103  SER103      0.1924
    177  C         22.9730   14.8360   35.2660 C.2   103  SER103      0.2314
    178  O         24.1690   15.0120   35.4890 O.2   103  SER103     -0.2863
    179  CB        21.3090   16.7310   35.2680 C.3   103  SER103      0.2116
    180  OG        20.6970   17.6990   34.3920 O.3   103  SER103     -0.2180
    181  N         25.7420   13.2750   33.2430 N.3   106  LEU106     -0.1245
    182  CA        26.7970   14.2720   32.9950 C.3   106  LEU106      0.1561
    183  C         27.6600   14.3510   34.2780 C.2   106  LEU106      0.2260
    184  O         28.8930   14.3970   34.1770 O.2   106  LEU106     -0.2867
    185  CB        26.1680   15.5920   32.6270 C.3   106  LEU106      0.0270
    186  CG        26.4240   16.4370   31.4290 C.3   106  LEU106      0.0019
    187  CD1       27.2570   15.7870   30.3530 C.3   106  LEU106      0.0001
    188  CD2       25.0500   16.8490   30.8380 C.3   106  LEU106      0.0001
    189  N         23.6030   22.2110   36.6390 N.3   130  LEU130     -0.1245
    190  CA        22.8540   21.3480   35.7380 C.3   130  LEU130      0.1561
    191  C         21.3660   21.5210   35.9390 C.2   130  LEU130      0.2260
    192  O         20.5840   21.5130   34.9630 O.2   130  LEU130     -0.2867
    193  CB        23.3940   19.9170   35.7710 C.3   130  LEU130      0.0270
    194  CG        24.7900   19.6590   35.2130 C.3   130  LEU130      0.0019
    195  CD1       25.2750   18.2580   35.4940 C.3   130  LEU130      0.0001
    196  CD2       24.7020   19.8680   33.6900 C.3   130  LEU130      0.0001
    197  N         20.3800   24.8480   34.2930 N.3   133  VAL133     -0.1231
    198  CA        20.3350   24.7420   32.8000 C.3   133  VAL133      0.1692
    199  C         19.0120   24.0500   32.4610 C.2   133  VAL133      0.2592
    200  O         18.2980   24.5090   31.5650 O.2   133  VAL133     -0.2718
    201  CB        21.5350   23.9990   32.2460 C.3   133  VAL133      0.0266
    202  CG1       21.3040   23.5220   30.7860 C.3   133  VAL133      0.0020
    203  CG2       22.8350   24.7810   32.2900 C.3   133  VAL133      0.0020
    204  N         18.7350   22.9620   33.1700 N.am  134  SER134     -0.1952
    205  CA        17.4980   22.1830   32.9620 C.3   134  SER134      0.1924
    206  C         16.2720   23.0690   33.1080 C.2   134  SER134      0.2314
    207  O         15.3430   23.0010   32.2530 O.2   134  SER134     -0.2863
    208  CB        17.4610   20.9450   33.8110 C.3   134  SER134      0.2116
    209  OG        18.5360   20.0970   33.5130 O.3   134  SER134     -0.2180
    210  N         16.0370   25.3910   30.1420 N.3   137  LEU137     -0.1245
    211  CA        15.5730   24.6650   28.9360 C.3   137  LEU137      0.1561
    212  C         14.0840   24.3110   28.9130 C.2   137  LEU137      0.2260
    213  O         13.4790   24.1010   27.8270 O.2   137  LEU137     -0.2867
    214  CB        16.5100   23.4690   28.6720 C.3   137  LEU137      0.0270
    215  CG        17.9110   23.7110   28.1500 C.3   137  LEU137      0.0019
    216  CD1       18.6210   22.4040   27.7990 C.3   137  LEU137      0.0001
    217  CD2       17.8600   24.5540   26.8910 C.3   137  LEU137      0.0001
@<TRIPOS>BOND
     1    42    41    2
     2    43    40    1
     3    43    44    1
     4    41    40    1
     5    41    49   am
     6    40    39    1
     7    46    44   ar
     8    46    48   ar
     9    44    45   ar
    10    49    50    1
    11    50    51    1
    12    50    53    1
    13    51    52    2
    14    48    47   ar
    15    45    47   ar
    16    55    57   ar
    17    55    54   ar
    18    57    59   ar
    19    77    78    1
    20    77    76    1
    21    53    54    1
    22    54    56   ar
    23    76    75    1
    24    59    58   ar
    25    56    58   ar
    26    75    74    1
    27   121   120    1
    28    31    30    2
    29    60    61    1
    30    30    29    1
    31   140   138    1
    32   122   120    1
    33    61    64    1
    34    61    62    1
    35    64    65    1
    36   120   119    1
    37    74    71    1
    38    29    32    1
    39    29    28    1
    40    66    65   ar
    41    66    68   ar
    42   119   116    1
    43   133   134    1
    44    19    18    2
    45    65    67   ar
    46   138   139    1
    47   138   137    1
    48    32    33    1
    49    70    71    1
    50    35    33   ar
    51    35    37   ar
    52    71    72    1
    53   116   115    1
    54   116   117    1
    55    28    18   am
    56    68    69   ar
    57    62    63    2
    58   134   137    1
    59   134   135    1
    60   118   117    2
    61    18    17    1
    62    33    34   ar
    63    37    38   ar
    64   117   123   am
    65    67    69   ar
    66   113   112    1
    67   136   135    2
    68    72    73    2
    69    72    79   am
    70    17    16    1
    71    17    20    1
    72    34    36   ar
    73   107   108    1
    74    38    36   ar
    75   123   124    1
    76    79    80    1
    77   108   111    1
    78   108   109    1
    79    20    21    1
    80   112   114    1
    81   112   111    1
    82   124   125    1
    83   124   127    1
    84   110   109    2
    85   131   129   ar
    86   131   132   ar
    87    22    21   ar
    88    22    24   ar
    89   126   125    2
    90   129   128   ar
    91    85    83    1
    92   132   130   ar
    93    21    23   ar
    94    80    83    1
    95    80    81    1
    96    86    87    1
    97   128   130   ar
    98   128   127    1
    99   147   145    1
   100    24    26   ar
   101    90    87    1
   102    83    84    1
   103    87    88    1
   104    81    82    2
   105    12    11    2
   106   141   142    1
   107   102   101    2
   108    23    25   ar
   109   101   100    1
   110    11    10    1
   111    26    25   ar
   112    26    27    1
   113   142   145    1
   114   142   143    1
   115   100    99    1
   116   100   103    1
   117   145   146    1
   118    88    89    2
   119    88    91   am
   120   106   104    1
   121    91    92    1
   122   217   215    1
   123   103   104    1
   124     8     7    1
   125    10     9    1
   126    10    13    1
   127   143   144    2
   128   104   105    1
   129    14    13    1
   130   216   215    1
   131   213   212    2
   132    13    15    1
   133   215   214    1
   134   166   165   ar
   135   166   164   ar
   136    92    93    1
   137    92    95    1
   138    93    94    2
   139   173   172    1
   140   214   211    1
   141   165   163   ar
   142    95    96    1
   143     7     6    1
   144   212   211    1
   145   211   210    1
   146   164   162   ar
   147     3     4    2
   148     3     2    1
   149   172   174    1
   150   172   171    1
   151    98    96    1
   152     5     6    1
   153     5     2    1
   154   154   153    2
   155    97    96    1
   156   153   152    1
   157   153   155   am
   158     1     2    1
   159   152   149    1
   160   163   161   ar
   161   187   186    1
   162   171   168    1
   163   162   161   ar
   164   202   201    1
   165   161   160    1
   166   188   186    1
   167   149   150    1
   168   149   148    1
   169   186   185    1
   170   151   150    2
   171   150   156   am
   172   200   199    2
   173   168   167    1
   174   168   169    1
   175   156   157    1
   176   157   160    1
   177   157   158    1
   178   201   203    1
   179   201   198    1
   180   207   206    2
   181   199   198    1
   182   199   204   am
   183   170   169    2
   184   169   175   am
   185   185   182    1
   186   198   197    1
   187   205   206    1
   188   205   204    1
   189   205   208    1
   190   182   181    1
   191   182   183    1
   192   158   159    2
   193   175   176    1
   194   209   208    1
   195   196   194    1
   196   184   183    2
   197   180   179    1
   198   176   177    1
   199   176   179    1
   200   192   191    2
   201   194   195    1
   202   194   193    1
   203   177   178    2
   204   190   193    1
   205   190   191    1
   206   190   189    1
