@<TRIPOS>MOLECULE
tmp/1bzcA00.pdb
 130 127 0 0 0
SMALL
GASTEIGER

@<TRIPOS>ATOM
      1  N        -11.4190   51.4900   13.9380 N.3    44  ARG44      -0.1231
      2  CA       -11.6360   52.5500   14.9030 C.3    44  ARG44       0.1694
      3  C        -12.6560   52.1050   15.9340 C.2    44  ARG44       0.2592
      4  O        -12.4870   52.3550   17.1210 O.2    44  ARG44      -0.2718
      5  CB       -12.1130   53.8190   14.1960 C.3    44  ARG44       0.0321
      6  CG       -12.3190   54.9980   15.1150 C.3    44  ARG44       0.0489
      7  CD       -12.7490   56.2120   14.3360 C.3    44  ARG44       0.2205
      8  NE       -11.6510   56.7840   13.5700 N.pl3  44  ARG44      -0.0865
      9  CZ       -10.7190   57.5780   14.0910 C.cat  44  ARG44       0.5346
     10  NH1      -10.7510   57.8950   15.3820 N.pl3  44  ARG44       0.1354
     11  NH2       -9.7460   58.0530   13.3250 N.pl3  44  ARG44       0.1354
     12  N        -13.7050   51.4270   15.4810 N.am   45  TYR45      -0.1962
     13  CA       -14.7610   50.9490   16.3700 C.3    45  TYR45       0.1771
     14  C        -14.9790   49.4510   16.2340 C.2    45  TYR45       0.2619
     15  O        -14.9750   48.9180   15.1290 O.2    45  TYR45      -0.2715
     16  CB       -16.0610   51.7000   16.0880 C.3    45  TYR45       0.0574
     17  CG       -15.9120   53.1890   16.2340 C.ar   45  TYR45      -0.0198
     18  CD1      -15.4940   53.7500   17.4460 C.ar   45  TYR45      -0.0009
     19  CD2      -16.1540   54.0410   15.1560 C.ar   45  TYR45      -0.0009
     20  CE1      -15.3170   55.1320   17.5840 C.ar   45  TYR45       0.0417
     21  CE2      -15.9820   55.4240   15.2770 C.ar   45  TYR45       0.0417
     22  CZ       -15.5640   55.9640   16.4950 C.ar   45  TYR45       0.1957
     23  OH       -15.4120   57.3290   16.6330 O.3    45  TYR45      -0.2866
     24  N        -15.1520   48.7780   17.3660 N.am   46  ARG46      -0.1963
     25  CA       -15.3660   47.3330   17.4020 C.3    46  ARG46       0.1729
     26  C        -16.6410   46.8630   16.7090 C.2    46  ARG46       0.2616
     27  O        -16.6810   45.7770   16.1230 O.2    46  ARG46      -0.2715
     28  CB       -15.4150   46.8450   18.8490 C.3    46  ARG46       0.0348
     29  CG       -14.0880   46.8050   19.5570 C.3    46  ARG46       0.0492
     30  CD       -14.2910   46.5120   21.0360 C.3    46  ARG46       0.2205
     31  NE       -13.6340   47.5250   21.8530 N.pl3  46  ARG46      -0.0865
     32  CZ       -14.2450   48.2620   22.7690 C.cat  46  ARG46       0.5346
     33  NH1      -15.5370   48.0990   23.0100 N.pl3  46  ARG46       0.1354
     34  NH2      -13.5680   49.2070   23.3970 N.pl3  46  ARG46       0.1354
     35  N        -17.7050   47.6430   16.8460 N.am   47  ASP47      -0.1957
     36  CA       -18.9820   47.2780   16.2530 C.3    47  ASP47       0.1840
     37  C        -19.2000   47.7660   14.8200 C.2    47  ASP47       0.2621
     38  O        -20.2660   47.5550   14.2600 O.2    47  ASP47      -0.2715
     39  CB       -20.1380   47.7390   17.1590 C.3    47  ASP47       0.1450
     40  CG       -20.2040   49.2580   17.3240 C.2    47  ASP47       0.3671
     41  OD1      -19.1440   49.9200   17.2590 O.co2  47  ASP47      -0.2456
     42  OD2      -21.3240   49.7850   17.5430 O.co2  47  ASP47      -0.2456
     43  N        -18.2010   48.4180   14.2320 N.am   48  VAL48      -0.1977
     44  CA       -18.3030   48.9320   12.8680 C.3    48  VAL48       0.1596
     45  C        -17.2000   48.3040   12.0210 C.2    48  VAL48       0.2287
     46  O        -16.0360   48.7200   12.0780 O.2    48  VAL48      -0.2864
     47  CB       -18.1470   50.4670   12.8260 C.3    48  VAL48       0.0276
     48  CG1      -18.3690   50.9780   11.4100 C.3    48  VAL48       0.0022
     49  CG2      -19.1150   51.1320   13.7900 C.3    48  VAL48       0.0022
     50  N        -11.5810   62.0870   16.5670 N.3   119  LYS119     -0.1245
     51  CA       -12.6770   61.4830   15.8160 C.3   119  LYS119      0.1561
     52  C        -12.1830   61.1080   14.4160 C.2   119  LYS119      0.2260
     53  O        -12.8630   60.4020   13.6650 O.2   119  LYS119     -0.2867
     54  CB       -13.8810   62.4280   15.7460 C.3   119  LYS119      0.0271
     55  CG       -14.7450   62.4180   17.0120 C.3   119  LYS119      0.0035
     56  CD       -15.6530   61.1880   17.0880 C.3   119  LYS119      0.0206
     57  CE       -16.5200   61.2000   18.3460 C.3   119  LYS119      0.1093
     58  NZ       -17.5490   60.1160   18.3350 N.3   119  LYS119     -0.1314
     59  N        -21.6540   64.5240   14.9820 N.3   180  ASP180     -0.1225
     60  CA       -21.8390   63.0890   14.9960 C.3   180  ASP180      0.1805
     61  C        -23.1960   62.7850   15.6210 C.2   180  ASP180      0.2597
     62  O        -23.5640   63.3470   16.6620 O.2   180  ASP180     -0.2718
     63  CB       -20.6670   62.3530   15.6760 C.3   180  ASP180      0.1424
     64  CG       -20.3200   62.8920   17.0530 C.2   180  ASP180      0.3668
     65  OD1      -20.2690   64.1280   17.2560 O.co2 180  ASP180     -0.2456
     66  OD2      -20.0500   62.0490   17.9330 O.co2 180  ASP180     -0.2456
     67  N        -23.9820   61.9960   14.8930 N.am  181  PHE181     -0.1976
     68  CA       -25.3340   61.6100   15.2980 C.3   181  PHE181      0.1639
     69  C        -26.2600   62.8180   15.1840 C.2   181  PHE181      0.2290
     70  O        -27.3620   62.8310   15.7460 O.2   181  PHE181     -0.2864
     71  CB       -25.3620   61.0490   16.7230 C.3   181  PHE181      0.0560
     72  CG       -24.4830   59.8580   16.9160 C.ar  181  PHE181     -0.0200
     73  CD1      -24.7740   58.6590   16.2830 C.ar  181  PHE181     -0.0042
     74  CD2      -23.3470   59.9430   17.7130 C.ar  181  PHE181     -0.0042
     75  CE1      -23.9500   57.5710   16.4390 C.ar  181  PHE181     -0.0003
     76  CE2      -22.5120   58.8600   17.8770 C.ar  181  PHE181     -0.0003
     77  CZ       -22.8120   57.6720   17.2400 C.ar  181  PHE181     -0.0000
     78  N        -16.7170   59.8570    7.6020 N.3   214  CYS214     -0.1221
     79  CA       -17.0570   60.6530    8.7740 C.3   214  CYS214      0.1808
     80  C        -16.2130   59.9900    9.8510 C.2   214  CYS214      0.2602
     81  O        -15.0650   59.6490    9.5820 O.2   214  CYS214     -0.2717
     82  CB       -18.5600   60.6160    9.0900 C.3   214  CYS214      0.0970
     83  SG       -19.4330   59.0380    8.8870 S.3   214  CYS214     -0.0800
     84  N        -16.7370   59.7910   11.0490 N.am  215  SER215     -0.1938
     85  CA       -15.9360   59.1430   12.0770 C.3   215  SER215      0.2055
     86  C        -15.9610   57.6090   11.9510 C.2   215  SER215      0.2643
     87  O        -14.9110   56.9810   11.8200 O.2   215  SER215     -0.2714
     88  CB       -16.3850   59.5830   13.4630 C.3   215  SER215      0.2130
     89  OG       -15.4960   59.0840   14.4440 O.3   215  SER215     -0.2179
     90  N        -17.1480   57.0020   12.0030 N.am  216  ALA216     -0.1963
     91  CA       -17.2600   55.5460   11.8670 C.3   216  ALA216      0.1728
     92  C        -17.4240   55.1520   10.4040 C.2   216  ALA216      0.2617
     93  O        -17.1420   54.0200   10.0260 O.2   216  ALA216     -0.2715
     94  CB       -18.4320   55.0140   12.6810 C.3   216  ALA216      0.0334
     95  N        -17.8780   56.0940    9.5860 N.am  217  GLY217     -0.1940
     96  CA       -18.0790   55.8270    8.1730 C.3   217  GLY217      0.2014
     97  C        -19.4340   55.1930    7.8980 C.2   217  GLY217      0.2639
     98  O        -19.5950   54.4510    6.9300 O.2   217  GLY217     -0.2714
     99  N        -20.4220   55.5150    8.7300 N.am  218  ILE218     -0.1963
    100  CA       -21.7610   54.9550    8.5750 C.3   218  ILE218      0.1727
    101  C        -22.9280   55.9410    8.7710 C.2   218  ILE218      0.2617
    102  O        -23.8690   55.9620    7.9800 O.2   218  ILE218     -0.2715
    103  CB       -21.9670   53.7270    9.5100 C.3   218  ILE218      0.0290
    104  CG1      -21.7620   54.1070   10.9760 C.3   218  ILE218      0.0022
    105  CG2      -20.9980   52.6240    9.1600 C.3   218  ILE218      0.0023
    106  CD1      -22.0760   52.9730   11.9230 C.3   218  ILE218      0.0001
    107  N        -22.8620   56.7800    9.7970 N.am  219  GLY219     -0.1940
    108  CA       -23.9540   57.7100   10.0420 C.3   219  GLY219      0.2014
    109  C        -24.0800   58.8140    9.0240 C.2   219  GLY219      0.2638
    110  O        -24.9740   58.8240    8.1790 O.2   219  GLY219     -0.2714
    111  N        -23.1940   59.7850    9.1400 N.am  220  ARG220     -0.1977
    112  CA       -23.1700   60.9040    8.2290 C.3   220  ARG220      0.1597
    113  C        -22.8400   60.4350    6.8280 C.2   220  ARG220      0.2287
    114  O        -23.4210   60.9250    5.8650 O.2   220  ARG220     -0.2864
    115  CB       -22.1640   61.9220    8.7200 C.3   220  ARG220      0.0334
    116  CG       -22.6690   62.6520    9.9340 C.3   220  ARG220      0.0492
    117  CD       -21.5390   63.2950   10.6810 C.3   220  ARG220      0.2205
    118  NE       -20.7530   62.2990   11.3980 N.pl3 220  ARG220     -0.0865
    119  CZ       -19.7820   62.6090   12.2410 C.cat 220  ARG220      0.5346
    120  NH1      -19.4850   63.8810   12.4500 N.pl3 220  ARG220      0.1354
    121  NH2      -19.1590   61.6680   12.9300 N.pl3 220  ARG220      0.1354
    122  N        -27.4650   56.4860   11.2880 N.3   261  GLN261     -0.1245
    123  CA       -27.4470   56.1280   12.6870 C.3   261  GLN261      0.1566
    124  C        -28.5360   56.6720   13.5680 C.2   261  GLN261      0.2260
    125  O        -28.5750   56.3460   14.7520 O.2   261  GLN261     -0.2867
    126  CB       -26.0940   56.5000   13.2700 C.3   261  GLN261      0.0367
    127  CG       -24.9790   55.5690   12.8390 C.3   261  GLN261      0.0905
    128  CD       -25.0690   54.2320   13.5300 C.2   261  GLN261      0.2608
    129  OE1      -24.8070   54.1250   14.7260 O.2   261  GLN261     -0.2717
    130  NE2      -25.4800   53.2090   12.7960 N.am  261  GLN261     -0.0878
@<TRIPOS>BOND
     1   114   113    2
     2   113   112    1
     3    98    97    2
     4    78    79    1
     5    97    96    1
     6    97    99   am
     7   102   101    2
     8    96    95    1
     9   110   109    2
    10   112   115    1
    11   112   111    1
    12   100    99    1
    13   100   101    1
    14   100   103    1
    15   115   116    1
    16   101   107   am
    17    79    82    1
    18    79    80    1
    19    83    82    1
    20   109   111   am
    21   109   108    1
    22   105   103    1
    23   103   104    1
    24    81    80    2
    25    95    92   am
    26   107   108    1
    27    80    84   am
    28   116   117    1
    29    93    92    2
    30    92    91    1
    31   117   118    1
    32   104   106    1
    33    84    85    1
    34   122   123    1
    35   118   119    2
    36    48    47    1
    37    87    86    2
    38    91    90    1
    39    91    94    1
    40    86    90   am
    41    86    85    1
    42    45    46    2
    43    45    44    1
    44    85    88    1
    45   119   120    1
    46   119   121    1
    47   123   126    1
    48   123   124    1
    49   130   128   am
    50    47    44    1
    51    47    49    1
    52   127   126    1
    53   127   128    1
    54    44    43    1
    55    11     9    1
    56    88    89    1
    57   128   129    2
    58   124   125    2
    59     8     9    2
    60     8     7    1
    61    53    52    2
    62     1     2    1
    63     9    10    1
    64     5     2    1
    65     5     6    1
    66    43    37   am
    67    38    37    2
    68     7     6    1
    69    52    51    1
    70    37    36    1
    71    67    68    1
    72    67    61   am
    73     2     3    1
    74    59    60    1
    75    60    61    1
    76    60    63    1
    77    15    14    2
    78    19    21   ar
    79    19    17   ar
    80    69    68    1
    81    69    70    2
    82    21    22   ar
    83    68    71    1
    84    12     3   am
    85    12    13    1
    86    61    62    2
    87    63    64    1
    88    54    51    1
    89    54    55    1
    90    51    50    1
    91     3     4    2
    92    16    17    1
    93    16    13    1
    94    27    26    2
    95    17    18   ar
    96    14    13    1
    97    14    24   am
    98    36    35    1
    99    36    39    1
   100    73    75   ar
   101    73    72   ar
   102    75    77   ar
   103    22    23    1
   104    22    20   ar
   105    26    35   am
   106    26    25    1
   107    71    72    1
   108    72    74   ar
   109    55    56    1
   110    64    65   ar
   111    64    66   ar
   112    56    57    1
   113    39    40    1
   114    77    76   ar
   115    41    40   ar
   116    40    42   ar
   117    24    25    1
   118    25    28    1
   119    18    20   ar
   120    74    76   ar
   121    58    57    1
   122    28    29    1
   123    29    30    1
   124    30    31    1
   125    31    32    2
   126    32    33    1
   127    32    34    1
