@<TRIPOS>MOLECULE
tmp/1bzfA00.pdb
 172 169 0 0 0
SMALL
GASTEIGER

@<TRIPOS>ATOM
      1  N          1.6560   -0.9250   -0.8710 N.3     4  LEU4       -0.1231
      2  CA         2.5520   -2.1080   -0.7060 C.3     4  LEU4        0.1693
      3  C          2.5190   -2.9500   -1.9830 C.2     4  LEU4        0.2592
      4  O          1.5280   -3.5870   -2.2880 O.2     4  LEU4       -0.2718
      5  CB         2.0700   -2.9510    0.4770 C.3     4  LEU4        0.0284
      6  CG         3.0620   -4.0880    0.7340 C.3     4  LEU4        0.0019
      7  CD1        4.1800   -3.5930    1.6520 C.3     4  LEU4        0.0001
      8  CD2        2.3330   -5.2550    1.4040 C.3     4  LEU4        0.0001
      9  N          3.5930   -2.9540   -2.7320 N.am    5  TRP5       -0.1962
     10  CA         3.6270   -3.7510   -3.9920 C.3     5  TRP5        0.1771
     11  C          5.0170   -4.3740   -4.1710 C.2     5  TRP5        0.2619
     12  O          6.0180   -3.7950   -3.7930 O.2     5  TRP5       -0.2715
     13  CB         3.2960   -2.8380   -5.1840 C.3     5  TRP5        0.0590
     14  CG         4.3180   -1.7460   -5.3060 C.ar    5  TRP5        0.0006
     15  CD1        5.2440   -1.6630   -6.2900 C.ar    5  TRP5        0.0946
     16  CD2        4.5360   -0.5920   -4.4410 C.ar    5  TRP5        0.0152
     17  NE1        6.0150   -0.5330   -6.0840 N.ar    5  TRP5       -0.2442
     18  CE2        5.6180    0.1590   -4.9580 C.ar    5  TRP5        0.0810
     19  CE3        3.9070   -0.1280   -3.2700 C.ar    5  TRP5        0.0012
     20  CZ2        6.0610    1.3280   -4.3370 C.ar    5  TRP5        0.0191
     21  CZ3        4.3520    1.0480   -2.6430 C.ar    5  TRP5        0.0001
     22  CH2        5.4260    1.7740   -3.1760 C.ar    5  TRP5        0.0015
     23  N          5.0800   -5.5470   -4.7490 N.am    6  ALA6       -0.1977
     24  CA         6.3990   -6.2130   -4.9600 C.3     6  ALA6        0.1597
     25  C          6.8720   -5.9550   -6.3920 C.2     6  ALA6        0.2287
     26  O          6.3100   -6.4690   -7.3410 O.2     6  ALA6       -0.2864
     27  CB         6.2520   -7.7190   -4.7330 C.3     6  ALA6        0.0319
     28  N         -0.7910  -12.6330  -13.7970 N.3    17  GLY17      -0.1210
     29  CA        -1.5690  -12.6510  -12.5240 C.3    17  GLY17       0.1956
     30  C         -0.6280  -12.9270  -11.3510 C.2    17  GLY17       0.2612
     31  O         -0.4780  -12.1120  -10.4600 O.2    17  GLY17      -0.2717
     32  N          0.0070  -14.0720  -11.3450 N.am   18  HIS18      -0.1961
     33  CA         0.9430  -14.4110  -10.2330 C.3    18  HIS18       0.1787
     34  C          2.2620  -13.6610  -10.4310 C.2    18  HIS18       0.2620
     35  O          2.4390  -12.9460  -11.3990 O.2    18  HIS18      -0.2715
     36  CB         1.2050  -15.9200  -10.2260 C.3    18  HIS18       0.0785
     37  CG         1.6770  -16.3590  -11.5860 C.ar   18  HIS18       0.0821
     38  ND1        3.0220  -16.4290  -11.9140 N.ar   18  HIS18      -0.2267
     39  CD2        0.9960  -16.7530  -12.7110 C.ar   18  HIS18       0.1154
     40  CE1        3.1080  -16.8510  -13.1890 C.ar   18  HIS18       0.1986
     41  NE2        1.9020  -17.0630  -13.7220 N.ar   18  HIS18      -0.2212
     42  N          3.1870  -13.8210   -9.5180 N.am   19  LEU19      -0.1977
     43  CA         4.4990  -13.1210   -9.6460 C.3    19  LEU19       0.1596
     44  C          5.4280  -13.9370  -10.5570 C.2    19  LEU19       0.2287
     45  O          5.2600  -15.1330  -10.6840 O.2    19  LEU19      -0.2864
     46  CB         5.1370  -12.9790   -8.2630 C.3    19  LEU19       0.0297
     47  CG         4.5280  -11.7770   -7.5400 C.3    19  LEU19       0.0022
     48  CD1        4.8300  -11.8740   -6.0430 C.3    19  LEU19       0.0001
     49  CD2        5.1320  -10.4870   -8.0980 C.3    19  LEU19       0.0001
     50  N         10.0350  -16.1720   -7.4110 N.3    22  HIS22      -0.1241
     51  CA         9.4910  -16.9460   -6.2560 C.3    22  HIS22       0.1621
     52  C         10.1420  -16.4520   -4.9620 C.2    22  HIS22       0.2264
     53  O         11.3010  -16.7120   -4.7020 O.2    22  HIS22      -0.2867
     54  CB         9.8010  -18.4310   -6.4470 C.3    22  HIS22       0.0745
     55  CG         8.9340  -19.2460   -5.5270 C.ar   22  HIS22       0.0817
     56  ND1        7.5500  -19.2220   -5.6010 N.ar   22  HIS22      -0.2268
     57  CD2        9.2390  -20.1110   -4.5050 C.ar   22  HIS22       0.1154
     58  CE1        7.0790  -20.0500   -4.6500 C.ar   22  HIS22       0.1986
     59  NE2        8.0670  -20.6180   -3.9530 N.ar   22  HIS22      -0.2212
     60  N          8.4650  -13.0520    0.9880 N.3    26  ASP26      -0.1225
     61  CA         7.5460  -11.9350    0.6210 C.3    26  ASP26       0.1805
     62  C          6.1030  -12.4440    0.6060 C.2    26  ASP26       0.2597
     63  O          5.1750  -11.7130    0.8940 O.2    26  ASP26      -0.2718
     64  CB         7.9190  -11.4040   -0.7660 C.3    26  ASP26       0.1424
     65  CG         7.0580  -10.1840   -1.0990 C.2    26  ASP26       0.3668
     66  OD1        6.7460   -9.4360   -0.1870 O.co2  26  ASP26      -0.2456
     67  OD2        6.7220  -10.0200   -2.2610 O.co2  26  ASP26      -0.2456
     68  N          5.9110  -13.6950    0.2710 N.am   27  LEU27      -0.1979
     69  CA         4.5310  -14.2610    0.2340 C.3    27  LEU27       0.1596
     70  C          4.0130  -14.4380    1.6620 C.2    27  LEU27       0.2287
     71  O          2.8200  -14.4490    1.9020 O.2    27  LEU27      -0.2864
     72  CB         4.5540  -15.6190   -0.4730 C.3    27  LEU27       0.0297
     73  CG         4.9830  -15.4300   -1.9300 C.3    27  LEU27       0.0022
     74  CD1        5.1330  -16.7990   -2.5990 C.3    27  LEU27       0.0001
     75  CD2        3.9230  -14.6130   -2.6750 C.3    27  LEU27       0.0001
     76  N          4.9190  -12.3680    4.1540 N.3    29  TYR29      -0.1227
     77  CA         4.7730  -10.9980    4.7310 C.3    29  TYR29       0.1736
     78  C          3.4140  -10.4190    4.3320 C.2    29  TYR29       0.2595
     79  O          2.8790   -9.5540    5.0000 O.2    29  TYR29      -0.2718
     80  CB         5.8890  -10.0980    4.1960 C.3    29  TYR29       0.0548
     81  CG         5.9640   -8.8400    5.0280 C.ar   29  TYR29      -0.0200
     82  CD1        6.1780   -8.9250    6.4080 C.ar   29  TYR29      -0.0009
     83  CD2        5.8190   -7.5890    4.4170 C.ar   29  TYR29      -0.0009
     84  CE1        6.2470   -7.7580    7.1790 C.ar   29  TYR29       0.0417
     85  CE2        5.8880   -6.4220    5.1880 C.ar   29  TYR29       0.0417
     86  CZ         6.1020   -6.5060    6.5680 C.ar   29  TYR29       0.1957
     87  OH         6.1700   -5.3560    7.3280 O.3    29  TYR29      -0.2866
     88  N          2.8560  -10.8890    3.2450 N.am   30  PHE30      -0.1976
     89  CA         1.5310  -10.3710    2.7920 C.3    30  PHE30       0.1639
     90  C          0.4680  -10.6990    3.8440 C.2    30  PHE30       0.2290
     91  O         -0.3450   -9.8650    4.1960 O.2    30  PHE30      -0.2864
     92  CB         1.1530  -11.0290    1.4640 C.3    30  PHE30       0.0560
     93  CG        -0.0650  -10.3440    0.8910 C.ar   30  PHE30      -0.0200
     94  CD1        0.0310   -9.0340    0.4100 C.ar   30  PHE30      -0.0042
     95  CD2       -1.2890  -11.0210    0.8410 C.ar   30  PHE30      -0.0042
     96  CE1       -1.0980   -8.3990   -0.1210 C.ar   30  PHE30      -0.0003
     97  CE2       -2.4180  -10.3860    0.3100 C.ar   30  PHE30      -0.0003
     98  CZ        -2.3230   -9.0750   -0.1710 C.ar   30  PHE30      -0.0000
     99  N         -6.8320   -8.2980   -9.5690 N.3    45  THR45      -0.1218
    100  CA        -6.0570   -8.8410   -8.4140 C.3    45  THR45       0.1862
    101  C         -6.9390   -9.8010   -7.6150 C.2    45  THR45       0.2287
    102  O         -6.4530  -10.7120   -6.9720 O.2    45  THR45      -0.2866
    103  CB        -5.6110   -7.6860   -7.5130 C.3    45  THR45       0.1770
    104  OG1       -5.0980   -6.6320   -8.3150 O.3    45  THR45      -0.2211
    105  CG2       -4.5250   -8.1760   -6.5540 C.3    45  THR45       0.0375
    106  N         -6.9640  -13.0230   -9.4050 N.3    48  SER48      -0.1202
    107  CA        -5.5370  -13.4600   -9.4140 C.3    48  SER48       0.2020
    108  C         -5.2330  -14.2550   -8.1420 C.2    48  SER48       0.2619
    109  O         -4.2960  -15.0290   -8.0940 O.2    48  SER48      -0.2717
    110  CB        -4.6290  -12.2310   -9.4750 C.3    48  SER48       0.2103
    111  OG        -3.2700  -12.6500   -9.4710 O.3    48  SER48      -0.2182
    112  N         -6.0200  -14.0670   -7.1110 N.am   49  PHE49      -0.1962
    113  CA        -5.7840  -14.8080   -5.8370 C.3    49  PHE49       0.1756
    114  C         -5.9460  -16.3160   -6.0830 C.2    49  PHE49       0.2461
    115  O         -6.5430  -16.7140   -7.0620 O.2    49  PHE49      -0.2730
    116  CB        -6.7990  -14.3510   -4.7860 C.3    49  PHE49       0.0574
    117  CG        -6.4130  -12.9830   -4.2740 C.ar   49  PHE49      -0.0200
    118  CD1       -5.1350  -12.7680   -3.7450 C.ar   49  PHE49      -0.0042
    119  CD2       -7.3340  -11.9300   -4.3270 C.ar   49  PHE49      -0.0042
    120  CE1       -4.7770  -11.5010   -3.2700 C.ar   49  PHE49      -0.0003
    121  CE2       -6.9770  -10.6630   -3.8520 C.ar   49  PHE49      -0.0003
    122  CZ        -5.6980  -10.4480   -3.3230 C.ar   49  PHE49      -0.0000
    123  N         -5.4070  -17.1170   -5.1870 N.am   50  PRO50      -0.2727
    124  CA        -5.4460  -18.6190   -5.2350 C.3    50  PRO50       0.1402
    125  C         -6.8000  -19.1220   -4.7250 C.2    50  PRO50       0.2269
    126  O         -7.6220  -19.5960   -5.4870 O.2    50  PRO50      -0.2865
    127  CB        -4.3200  -19.1120   -4.3270 C.3    50  PRO50       0.0296
    128  CG        -3.8380  -17.9280   -3.5140 C.3    50  PRO50       0.0237
    129  CD        -4.6510  -16.7120   -3.9470 C.3    50  PRO50       0.0939
    130  N        -10.1140  -13.9610    0.8130 N.3    54  LEU54      -0.1245
    131  CA        -9.1040  -14.1620    1.8920 C.3    54  LEU54       0.1561
    132  C         -9.7570  -13.8850    3.2590 C.2    54  LEU54       0.2260
    133  O        -10.1950  -12.7800    3.5050 O.2    54  LEU54      -0.2867
    134  CB        -7.9420  -13.1890    1.6820 C.3    54  LEU54       0.0270
    135  CG        -7.3420  -13.4030    0.2930 C.3    54  LEU54       0.0019
    136  CD1       -6.3550  -12.2750   -0.0180 C.3    54  LEU54       0.0001
    137  CD2       -6.6070  -14.7450    0.2570 C.3    54  LEU54       0.0001
    138  N         -9.3870  -11.2140    7.3420 N.3    57  ARG57      -0.1245
    139  CA        -9.0760   -9.8550    6.8110 C.3    57  ARG57       0.1563
    140  C        -10.2400   -9.3660    5.9450 C.2    57  ARG57       0.2260
    141  O        -10.9940  -10.1540    5.4050 O.2    57  ARG57      -0.2867
    142  CB        -7.7960   -9.9100    5.9680 C.3    57  ARG57       0.0307
    143  CG        -7.9570  -10.9460    4.8520 C.3    57  ARG57       0.0489
    144  CD        -6.5760  -11.4270    4.4000 C.3    57  ARG57       0.2205
    145  NE        -6.1810  -12.6300    5.1980 N.pl3  57  ARG57      -0.0865
    146  CZ        -5.1760  -13.3920    4.8210 C.cat  57  ARG57       0.5346
    147  NH1       -4.4920  -13.1180    3.7380 N.pl3  57  ARG57       0.1354
    148  NH2       -4.8550  -14.4330    5.5380 N.pl3  57  ARG57       0.1354
    149  N         -2.9770   -3.0930   -2.3520 N.3    97  ALA97      -0.1245
    150  CA        -2.0590   -4.1780   -2.8050 C.3    97  ALA97       0.1562
    151  C         -2.0090   -4.1990   -4.3340 C.2    97  ALA97       0.2260
    152  O         -1.0240   -4.6010   -4.9250 O.2    97  ALA97      -0.2867
    153  CB        -2.5720   -5.5260   -2.2930 C.3    97  ALA97       0.0290
    154  N          9.0530   -3.2550   -2.4320 N.3   116  THR116     -0.1218
    155  CA         9.9810   -4.4070   -2.2370 C.3   116  THR116      0.1862
    156  C         10.8840   -4.5450   -3.4640 C.2   116  THR116      0.2287
    157  O         10.4670   -5.0360   -4.4970 O.2   116  THR116     -0.2866
    158  CB         9.1700   -5.6930   -2.0520 C.3   116  THR116      0.1770
    159  OG1        8.1560   -5.4750   -1.0810 O.3   116  THR116     -0.2211
    160  CG2       10.0930   -6.8180   -1.5850 C.3   116  THR116      0.0375
    161  N         13.0180   -4.1350    2.0560 N.3   155  TYR155     -0.1241
    162  CA        11.6990   -3.4670    2.2560 C.3   155  TYR155      0.1605
    163  C         11.9200   -1.9960    2.6110 C.2   155  TYR155      0.2264
    164  O         12.2340   -1.6610    3.7380 O.2   155  TYR155     -0.2867
    165  CB        10.9440   -4.1590    3.3940 C.3   155  TYR155      0.0534
    166  CG        10.6300   -5.5810    2.9990 C.ar  155  TYR155     -0.0201
    167  CD1        9.4840   -5.8620    2.2450 C.ar  155  TYR155     -0.0009
    168  CD2       11.4850   -6.6210    3.3870 C.ar  155  TYR155     -0.0009
    169  CE1        9.1930   -7.1810    1.8780 C.ar  155  TYR155      0.0417
    170  CE2       11.1930   -7.9400    3.0210 C.ar  155  TYR155      0.0417
    171  CZ        10.0470   -8.2210    2.2660 C.ar  155  TYR155      0.1957
    172  OH         9.7600   -9.5210    1.9050 O.3   155  TYR155     -0.2866
@<TRIPOS>BOND
     1    28    29    1
     2    41    40   ar
     3    41    39   ar
     4    40    38   ar
     5    39    37   ar
     6    29    30    1
     7    38    37   ar
     8    37    36    1
     9    35    34    2
    10    30    32   am
    11    30    31    2
    12    32    33    1
    13    45    44    2
    14    44    43    1
    15    34    33    1
    16    34    42   am
    17    33    36    1
    18    43    42    1
    19    43    46    1
    20    99   100    1
    21   110   111    1
    22   110   107    1
    23   107   106    1
    24   107   108    1
    25   100   101    1
    26   100   103    1
    27   104   103    1
    28    46    47    1
    29   108   109    2
    30   108   112   am
    31    49    47    1
    32   101   102    2
    33    47    48    1
    34   103   105    1
    35    50    51    1
    36    26    25    2
    37   112   113    1
    38   115   114    2
    39    54    51    1
    40    54    55    1
    41    25    24    1
    42    15    17   ar
    43    15    14   ar
    44    51    52    1
    45    17    18   ar
    46   114   113    1
    47   114   123   am
    48   113   116    1
    49    56    55   ar
    50    56    58   ar
    51    55    57   ar
    52   126   125    2
    53    14    13    1
    54    14    16   ar
    55   124   123    1
    56   124   125    1
    57   124   127    1
    58   123   129    1
    59    13    10    1
    60    52    53    2
    61    24    23    1
    62    24    27    1
    63    18    16   ar
    64    18    20   ar
    65   152   151    2
    66   116   117    1
    67    23    11   am
    68    58    59   ar
    69    57    59   ar
    70   157   156    2
    71    16    19   ar
    72    20    22   ar
    73   151   150    1
    74   127   128    1
    75   119   117   ar
    76   119   121   ar
    77   117   118   ar
    78    11    10    1
    79    11    12    2
    80    10     9    1
    81   129   128    1
    82   121   122   ar
    83   118   120   ar
    84   156   155    1
    85   122   120   ar
    86    19    21   ar
    87    22    21   ar
    88   150   149    1
    89   150   153    1
    90     9     3   am
    91    75    73    1
    92    74    73    1
    93   154   155    1
    94     4     3    2
    95    67    65   ar
    96   155   158    1
    97   158   160    1
    98   158   159    1
    99     3     2    1
   100    73    72    1
   101    65    64    1
   102    65    66   ar
   103     1     2    1
   104    64    61    1
   105     2     5    1
   106    72    69    1
   107    98    96   ar
   108    98    97   ar
   109    96    94   ar
   110   136   135    1
   111    69    68    1
   112    69    70    1
   113   137   135    1
   114    68    62   am
   115   135   134    1
   116    97    95   ar
   117    94    93   ar
   118     5     6    1
   119    62    61    1
   120    62    63    2
   121    61    60    1
   122     6     8    1
   123     6     7    1
   124   130   131    1
   125    95    93   ar
   126    93    92    1
   127    92    89    1
   128    70    71    2
   129   134   131    1
   130   169   167   ar
   131   169   171   ar
   132   131   132    1
   133   172   171    1
   134   161   162    1
   135   167   166   ar
   136   162   163    1
   137   162   165    1
   138   171   170   ar
   139   163   164    2
   140    89    88    1
   141    89    90    1
   142   166   168   ar
   143   166   165    1
   144   170   168   ar
   145    88    78   am
   146   132   133    2
   147   147   146    1
   148    90    91    2
   149    76    77    1
   150    80    77    1
   151    80    81    1
   152    78    77    1
   153    78    79    2
   154   144   143    1
   155   144   145    1
   156    83    81   ar
   157    83    85   ar
   158   146   145    2
   159   146   148    1
   160   143   142    1
   161    81    82   ar
   162    85    86   ar
   163   141   140    2
   164   140   139    1
   165   142   139    1
   166    82    84   ar
   167    86    84   ar
   168    86    87    1
   169   139   138    1
