@<TRIPOS>MOLECULE
tmp/1bzhA00.pdb
 152 144 0 0 0
SMALL
GASTEIGER

@<TRIPOS>ATOM
      1  N          0.1320  -15.5110   15.6800 N.3    23  ARG23      -0.1245
      2  CA        -0.0350  -15.5620   17.1280 C.3    23  ARG23       0.1563
      3  C          0.0570  -17.0190   17.5910 C.2    23  ARG23       0.2260
      4  O          0.8360  -17.3730   18.4770 O.2    23  ARG23      -0.2867
      5  CB        -1.3240  -14.9240   17.6260 C.3    23  ARG23       0.0307
      6  CG        -1.4200  -13.4230   17.3320 C.3    23  ARG23       0.0489
      7  CD        -2.3240  -12.8070   18.4030 C.3    23  ARG23       0.2205
      8  NE        -1.7010  -13.0030   19.7030 N.pl3  23  ARG23      -0.0865
      9  CZ        -0.7440  -12.2580   20.2890 C.cat  23  ARG23       0.5346
     10  NH1       -0.1920  -11.1780   19.7580 N.pl3  23  ARG23       0.1354
     11  NH2       -0.3210  -12.6410   21.4970 N.pl3  23  ARG23       0.1354
     12  N          6.7390   -3.3330   35.8110 N.3    43  ASN43      -0.1225
     13  CA         6.0480   -3.8170   34.6310 C.3    43  ASN43       0.1785
     14  C          4.8660   -2.8900   34.4240 C.2    43  ASN43       0.2597
     15  O          4.0130   -2.8130   35.3070 O.2    43  ASN43      -0.2718
     16  CB         5.5550   -5.2670   34.7880 C.3    43  ASN43       0.1169
     17  CG         6.7330   -6.2130   34.8420 C.2    43  ASN43       0.2627
     18  OD1        7.5460   -6.0940   33.9160 O.2    43  ASN43      -0.2716
     19  ND2        6.8670   -7.0720   35.8290 N.am   43  ASN43      -0.0877
     20  N          4.8500   -2.1920   33.3090 N.am   44  ARG44      -0.1966
     21  CA         3.7580   -1.2810   33.0180 C.3    44  ARG44       0.1729
     22  C          2.5220   -2.1330   32.7660 C.2    44  ARG44       0.2616
     23  O          1.4190   -1.7280   33.0940 O.2    44  ARG44      -0.2715
     24  CB         4.0810   -0.4280   31.8010 C.3    44  ARG44       0.0348
     25  CG         2.9170    0.4520   31.3430 C.3    44  ARG44       0.0492
     26  CD         3.3620    1.3320   30.1690 C.3    44  ARG44       0.2205
     27  NE         4.3280    2.3500   30.5970 N.pl3  44  ARG44      -0.0865
     28  CZ         3.9070    3.4910   31.1300 C.cat  44  ARG44       0.5346
     29  NH1        2.5880    3.6790   31.2380 N.pl3  44  ARG44       0.1354
     30  NH2        4.7620    4.4140   31.5140 N.pl3  44  ARG44       0.1354
     31  N          2.6790   -3.2880   32.1660 N.am   45  TYR45      -0.1960
     32  CA         1.6260   -4.2220   31.8240 C.3    45  TYR45       0.1771
     33  C          1.9430   -5.6140   32.3710 C.2    45  TYR45       0.2619
     34  O          2.9950   -6.2280   32.1920 O.2    45  TYR45      -0.2715
     35  CB         1.4330   -4.2300   30.3110 C.3    45  TYR45       0.0574
     36  CG         1.0740   -2.9110   29.6680 C.ar   45  TYR45      -0.0198
     37  CD1       -0.1760   -2.3260   29.8580 C.ar   45  TYR45      -0.0009
     38  CD2        1.9870   -2.2190   28.8620 C.ar   45  TYR45      -0.0009
     39  CE1       -0.5200   -1.1330   29.2580 C.ar   45  TYR45       0.0417
     40  CE2        1.6620   -1.0210   28.2700 C.ar   45  TYR45       0.0417
     41  CZ         0.4050   -0.4760   28.4800 C.ar   45  TYR45       0.1957
     42  OH         0.1160    0.7210   27.8640 O.3    45  TYR45      -0.2866
     43  N          0.9570   -6.2210   33.0360 N.am   46  ARG46      -0.1963
     44  CA         1.0610   -7.4970   33.7020 C.3    46  ARG46       0.1729
     45  C          1.1440   -8.6650   32.7320 C.2    46  ARG46       0.2616
     46  O          1.7430   -9.7000   32.9920 O.2    46  ARG46      -0.2715
     47  CB        -0.0220   -7.7660   34.7440 C.3    46  ARG46       0.0348
     48  CG        -1.4650   -7.4770   34.4440 C.3    46  ARG46       0.0492
     49  CD        -2.3710   -7.6250   35.6810 C.3    46  ARG46       0.2205
     50  NE        -3.6400   -6.9630   35.3790 N.pl3  46  ARG46      -0.0865
     51  CZ        -3.8830   -5.6550   35.4670 C.cat  46  ARG46       0.5346
     52  NH1       -2.9380   -4.8370   35.9280 N.pl3  46  ARG46       0.1354
     53  NH2       -5.0690   -5.1660   35.1080 N.pl3  46  ARG46       0.1354
     54  N          0.5570   -8.4040   31.5750 N.am   47  ASP47      -0.1957
     55  CA         0.4720   -9.3290   30.4720 C.3    47  ASP47       0.1840
     56  C          1.5180   -8.9820   29.4210 C.2    47  ASP47       0.2621
     57  O          1.3830   -9.4360   28.2880 O.2    47  ASP47      -0.2715
     58  CB        -0.9480   -9.2690   29.9200 C.3    47  ASP47       0.1450
     59  CG        -1.3710   -7.9250   29.3530 C.2    47  ASP47       0.3671
     60  OD1       -0.8840   -6.8420   29.7670 O.co2  47  ASP47      -0.2456
     61  OD2       -2.2230   -7.9360   28.4300 O.co2  47  ASP47      -0.2456
     62  N          2.5120   -8.1300   29.6960 N.am   48  VAL48      -0.1977
     63  CA         3.5790   -7.8760   28.7190 C.3    48  VAL48       0.1596
     64  C          4.9140   -7.9440   29.4690 C.2    48  VAL48       0.2287
     65  O          5.3130   -7.0390   30.1710 O.2    48  VAL48      -0.2864
     66  CB         3.5450   -6.6660   27.8220 C.3    48  VAL48       0.0276
     67  CG1        4.7780   -6.6470   26.8980 C.3    48  VAL48       0.0022
     68  CG2        2.3120   -6.6260   26.9270 C.3    48  VAL48       0.0022
     69  N         -4.8260    8.0230   23.3920 N.3   115  LYS115     -0.1245
     70  CA        -6.1690    7.5600   23.7380 C.3   115  LYS115      0.1561
     71  C         -6.6640    8.1410   25.0600 C.2   115  LYS115      0.2260
     72  O         -7.4770    7.5340   25.7590 O.2   115  LYS115     -0.2867
     73  CB        -6.2360    6.0320   23.7610 C.3   115  LYS115      0.0271
     74  CG        -5.8600    5.3600   22.4360 C.3   115  LYS115      0.0035
     75  CD        -5.4810    3.9170   22.6810 C.3   115  LYS115      0.0206
     76  CE        -5.0590    3.0910   21.5020 C.3   115  LYS115      0.1093
     77  NZ        -3.6880    3.3440   20.9880 N.3   115  LYS115     -0.1314
     78  N          0.7920    6.5560   28.1790 N.3   119  LYS119     -0.1245
     79  CA         1.3390    5.3140   27.6280 C.3   119  LYS119      0.1561
     80  C          2.8160    5.2280   27.9680 C.2   119  LYS119      0.2260
     81  O          3.5050    4.3140   27.5630 O.2   119  LYS119     -0.2867
     82  CB         1.0350    5.3260   26.1240 C.3   119  LYS119      0.0271
     83  CG        -0.4260    5.2300   25.7400 C.3   119  LYS119      0.0035
     84  CD        -1.1640    4.0920   26.4330 C.3   119  LYS119      0.0206
     85  CE        -2.6570    4.1230   26.1270 C.3   119  LYS119      0.1093
     86  NZ        -3.3250    2.9510   26.7660 N.3   119  LYS119     -0.1314
     87  N          7.5340    1.8240   22.7850 N.3   214  CYS214     -0.1221
     88  CA         6.2170    2.4080   22.5140 C.3   214  CYS214      0.1808
     89  C          5.5560    2.3890   23.8880 C.2   214  CYS214      0.2602
     90  O          6.2680    2.8270   24.8070 O.2   214  CYS214     -0.2717
     91  CB         5.4270    1.7520   21.4000 C.3   214  CYS214      0.0970
     92  SG         5.3600   -0.0500   21.3310 S.3   214  CYS214     -0.0800
     93  N          4.3580    1.8860   24.0840 N.am  215  SER215     -0.1938
     94  CA         3.8170    1.8570   25.4460 C.3   215  SER215      0.2055
     95  C          4.1760    0.5250   26.0880 C.2   215  SER215      0.2642
     96  O          4.7940    0.4430   27.1470 O.2   215  SER215     -0.2714
     97  CB         2.3060    2.0950   25.4670 C.3   215  SER215      0.2130
     98  OG         1.9260    2.2370   26.8380 O.3   215  SER215     -0.2179
     99  N          3.7840   -0.5760   25.4340 N.am  216  ALA216     -0.1977
    100  CA         4.1180   -1.9060   25.9360 C.3   216  ALA216      0.1597
    101  C          5.4610   -2.3660   25.3850 C.2   216  ALA216      0.2287
    102  O          6.0730   -3.2820   25.9230 O.2   216  ALA216     -0.2864
    103  CB         3.0800   -2.9710   25.5820 C.3   216  ALA216      0.0319
    104  N          5.8870   -3.5790   22.1950 N.3   218  ILE218     -0.1231
    105  CA         5.7100   -4.7780   21.3980 C.3   218  ILE218      0.1692
    106  C          5.0320   -4.4980   20.0650 C.2   218  ILE218      0.2593
    107  O          5.4750   -5.1320   19.1040 O.2   218  ILE218     -0.2718
    108  CB         4.9400   -5.8970   22.1160 C.3   218  ILE218      0.0266
    109  CG1        3.5210   -5.4770   22.5450 C.3   218  ILE218      0.0019
    110  CG2        5.7120   -6.4080   23.3380 C.3   218  ILE218      0.0020
    111  CD1        2.7900   -6.6510   23.2410 C.3   218  ILE218      0.0001
    112  N          4.0310   -3.6050   20.0720 N.am  219  GLY219     -0.1942
    113  CA         3.3020   -3.3880   18.8320 C.3   219  GLY219      0.2014
    114  C          4.0000   -2.4990   17.8410 C.2   219  GLY219      0.2638
    115  O          4.4780   -3.0280   16.8360 O.2   219  GLY219     -0.2714
    116  N          4.0510   -1.2070   18.1180 N.am  220  ARG220     -0.1977
    117  CA         4.7590   -0.3110   17.2180 C.3   220  ARG220      0.1597
    118  C          6.2530   -0.5960   17.2330 C.2   220  ARG220      0.2287
    119  O          6.8490   -0.4180   16.1880 O.2   220  ARG220     -0.2864
    120  CB         4.5570    1.1610   17.5220 C.3   220  ARG220      0.0334
    121  CG         3.1320    1.6350   17.7080 C.3   220  ARG220      0.0492
    122  CD         3.1830    2.9350   18.5120 C.3   220  ARG220      0.2205
    123  NE         1.9000    3.5950   18.5570 N.pl3 220  ARG220     -0.0865
    124  CZ         1.0650    3.6430   19.5860 C.cat 220  ARG220      0.5346
    125  NH1        1.4230    3.0390   20.7190 N.pl3 220  ARG220      0.1354
    126  NH2       -0.0890    4.2990   19.4150 N.pl3 220  ARG220      0.1354
    127  N          7.7150  -11.2970   23.3950 N.3   257  MET257     -0.1245
    128  CA         6.3940  -11.7490   23.0720 C.3   257  MET257      0.1570
    129  C          5.5510  -10.6700   22.4080 C.2   257  MET257      0.2261
    130  O          5.7100   -9.5000   22.7030 O.2   257  MET257     -0.2867
    131  CB         5.6670  -12.2090   24.3750 C.3   257  MET257      0.0387
    132  CG         5.5500  -11.0530   25.3840 C.3   257  MET257      0.0595
    133  SD         4.4530  -11.3960   26.7910 S.3   257  MET257     -0.1393
    134  CE         5.2820  -12.8270   27.4970 C.3   257  MET257      0.0692
    135  N          1.0050   -6.1860   17.4560 N.3   261  GLN261     -0.1245
    136  CA        -0.2100   -6.4120   18.1980 C.3   261  GLN261      0.1566
    137  C         -1.5270   -6.5110   17.4520 C.2   261  GLN261      0.2260
    138  O         -2.4710   -7.0210   18.0660 O.2   261  GLN261     -0.2867
    139  CB        -0.3770   -5.2480   19.2160 C.3   261  GLN261      0.0367
    140  CG         0.4080   -5.5250   20.4920 C.3   261  GLN261      0.0905
    141  CD         0.0040   -6.8220   21.1700 C.2   261  GLN261      0.2608
    142  OE1       -0.9520   -6.7660   21.9340 O.2   261  GLN261     -0.2717
    143  NE2        0.6930   -7.9270   20.8910 N.am  261  GLN261     -0.0878
    144  N         -1.2980   -3.7000   12.2250 N.3   265  GLN265     -0.1245
    145  CA         0.1350   -3.4380   12.3890 C.3   265  GLN265      0.1566
    146  C          0.9420   -4.4130   11.5620 C.2   265  GLN265      0.2260
    147  O          1.9950   -4.1020   10.9940 O.2   265  GLN265     -0.2867
    148  CB         0.5190   -3.4890   13.8650 C.3   265  GLN265      0.0367
    149  CG         0.2270   -2.2260   14.6530 C.3   265  GLN265      0.0905
    150  CD         0.5980   -2.4040   16.1190 C.2   265  GLN265      0.2608
    151  OE1        1.0300   -3.4910   16.5310 O.2   265  GLN265     -0.2717
    152  NE2        0.4080   -1.3450   16.8830 N.am  265  GLN265     -0.0878
@<TRIPOS>BOND
     1   147   146    2
     2   146   145    1
     3   144   145    1
     4   145   148    1
     5   148   149    1
     6   149   150    1
     7     1     2    1
     8   150   151    2
     9   150   152   am
    10   119   118    2
    11   115   114    2
    12     2     3    1
    13     2     5    1
    14   117   118    1
    15   117   120    1
    16   117   116    1
    17     6     5    1
    18     6     7    1
    19   137   138    2
    20   137   136    1
    21   135   136    1
    22   120   121    1
    23     3     4    2
    24   121   122    1
    25   114   116   am
    26   114   113    1
    27   136   139    1
    28     7     8    1
    29   122   123    1
    30   123   124    2
    31   113   112    1
    32   107   106    2
    33   139   140    1
    34   126   124    1
    35   124   125    1
    36     8     9    2
    37    10     9    1
    38   106   112   am
    39   106   105    1
    40     9    11    1
    41   140   141    1
    42   143   141   am
    43    77    76    1
    44   141   142    2
    45    92    91    1
    46   105   108    1
    47   105   104    1
    48    91    88    1
    49    76    75    1
    50   108   109    1
    51   108   110    1
    52   129   130    2
    53   129   128    1
    54    74    75    1
    55    74    73    1
    56    88    87    1
    57    88    89    1
    58   109   111    1
    59   128   127    1
    60   128   131    1
    61    69    70    1
    62    70    73    1
    63    70    71    1
    64    89    93   am
    65    89    90    2
    66    93    94    1
    67   131   132    1
    68    71    72    2
    69   132   133    1
    70   101   102    2
    71   101   100    1
    72    99   100    1
    73    99    95   am
    74    94    97    1
    75    94    95    1
    76    97    98    1
    77   103   100    1
    78    83    82    1
    79    83    84    1
    80    95    96    2
    81    82    79    1
    82    85    84    1
    83    85    86    1
    84   133   134    1
    85    67    66    1
    86    68    66    1
    87    81    80    2
    88    79    80    1
    89    79    78    1
    90    66    63    1
    91    42    41    1
    92    40    41   ar
    93    40    38   ar
    94    57    56    2
    95    61    59   ar
    96    41    39   ar
    97    63    64    1
    98    63    62    1
    99    38    36   ar
   100    39    37   ar
   101    59    60   ar
   102    59    58    1
   103    56    62   am
   104    56    55    1
   105    64    65    2
   106    36    37   ar
   107    36    35    1
   108    58    55    1
   109    26    27    1
   110    26    25    1
   111    35    32    1
   112    55    54    1
   113    27    28    2
   114    28    29    1
   115    28    30    1
   116    25    24    1
   117    54    45   am
   118    24    21    1
   119    32    31    1
   120    32    33    1
   121    31    22   am
   122    34    33    2
   123    33    43   am
   124    45    46    2
   125    45    44    1
   126    22    21    1
   127    22    23    2
   128    21    20    1
   129    43    44    1
   130    20    14   am
   131    44    47    1
   132    18    17    2
   133    14    13    1
   134    14    15    2
   135    48    47    1
   136    48    49    1
   137    13    16    1
   138    13    12    1
   139    16    17    1
   140    17    19   am
   141    53    51    1
   142    50    51    2
   143    50    49    1
   144    51    52    1
