@<TRIPOS>MOLECULE
tmp/1bzjA00.pdb
 128 124 0 0 0
SMALL
GASTEIGER

@<TRIPOS>ATOM
      1  N         38.3860    9.3000    1.7590 N.3    45  TYR45      -0.1227
      2  CA        39.4580    8.8460    0.8900 C.3    45  TYR45       0.1736
      3  C         39.6100    7.3300    0.9150 C.2    45  TYR45       0.2595
      4  O         39.6520    6.7110    1.9780 O.2    45  TYR45      -0.2718
      5  CB        40.7820    9.5230    1.2550 C.3    45  TYR45       0.0548
      6  CG        40.7070   11.0310    1.1360 C.ar   45  TYR45      -0.0200
      7  CD1       40.4220   11.6440   -0.0860 C.ar   45  TYR45      -0.0009
      8  CD2       40.8690   11.8470    2.2620 C.ar   45  TYR45      -0.0009
      9  CE1       40.2900   13.0450   -0.1730 C.ar   45  TYR45       0.0417
     10  CE2       40.7420   13.2360    2.1870 C.ar   45  TYR45       0.0417
     11  CZ        40.4510   13.8260    0.9710 C.ar   45  TYR45       0.1957
     12  OH        40.3480   15.2000    0.9160 O.3    45  TYR45      -0.2866
     13  N         39.6590    6.7430   -0.2640 N.am   46  ARG46      -0.1966
     14  CA        39.8050    5.3050   -0.4330 C.3    46  ARG46       0.1729
     15  C         40.9880    4.7330    0.3550 C.2    46  ARG46       0.2616
     16  O         40.8430    3.7560    1.0790 O.2    46  ARG46      -0.2715
     17  CB        39.9870    5.0260   -1.9240 C.3    46  ARG46       0.0348
     18  CG        39.7400    3.6050   -2.3700 C.3    46  ARG46       0.0492
     19  CD        40.9770    2.9960   -3.0320 C.3    46  ARG46       0.2205
     20  NE        41.5300    3.8040   -4.1190 N.pl3  46  ARG46      -0.0865
     21  CZ        42.7670    3.6770   -4.6080 C.cat  46  ARG46       0.5346
     22  NH1       43.6010    2.7700   -4.1170 N.pl3  46  ARG46       0.1354
     23  NH2       43.1840    4.4810   -5.5740 N.pl3  46  ARG46       0.1354
     24  N         42.1440    5.3830    0.2580 N.am   47  ASP47      -0.1957
     25  CA        43.3590    4.8990    0.9110 C.3    47  ASP47       0.1840
     26  C         43.6520    5.4220    2.3170 C.2    47  ASP47       0.2621
     27  O         44.7730    5.3040    2.7790 O.2    47  ASP47      -0.2715
     28  CB        44.5600    5.1650   -0.0080 C.3    47  ASP47       0.1450
     29  CG        44.4540    4.4220   -1.3370 C.2    47  ASP47       0.3671
     30  OD1       43.7300    3.4070   -1.3970 O.co2  47  ASP47      -0.2456
     31  OD2       45.0990    4.8600   -2.3200 O.co2  47  ASP47      -0.2456
     32  N         42.6820    6.0540    2.9710 N.am   48  VAL48      -0.1977
     33  CA        42.8960    6.5600    4.3260 C.3    48  VAL48       0.1596
     34  C         41.7940    5.9440    5.1910 C.2    48  VAL48       0.2287
     35  O         40.6350    6.3980    5.1990 O.2    48  VAL48      -0.2864
     36  CB        42.8350    8.1100    4.3990 C.3    48  VAL48       0.0276
     37  CG1       43.1170    8.5830    5.8400 C.3    48  VAL48       0.0022
     38  CG2       43.8120    8.7570    3.4110 C.3    48  VAL48       0.0022
     39  N         36.7770   19.7950    0.8630 N.3   119  LYS119     -0.1245
     40  CA        37.5440   18.8820    1.6850 C.3   119  LYS119      0.1561
     41  C         36.8900   18.5500    3.0010 C.2   119  LYS119      0.2260
     42  O         37.4140   17.7450    3.7500 O.2   119  LYS119     -0.2867
     43  CB        38.9260   19.4970    1.9510 C.3   119  LYS119      0.0271
     44  CG        39.6960   19.8710    0.6880 C.3   119  LYS119      0.0035
     45  CD        40.0670   18.6440   -0.1020 C.3   119  LYS119      0.0206
     46  CE        40.7920   19.0030   -1.3550 C.3   119  LYS119      0.1093
     47  NZ        41.3420   17.7440   -1.9310 N.3   119  LYS119     -0.1314
     48  N         47.0530   21.9310    2.6830 N.3   180  ASP180     -0.1225
     49  CA        47.1000   20.4680    2.7080 C.3   180  ASP180      0.1805
     50  C         48.4700   20.1100    2.1920 C.2   180  ASP180      0.2597
     51  O         48.9200   20.6680    1.1820 O.2   180  ASP180     -0.2718
     52  CB        45.9870   19.8130    1.8740 C.3   180  ASP180      0.1424
     53  CG        46.0890   20.1250    0.3920 C.2   180  ASP180      0.3668
     54  OD1       46.3040   21.3210    0.0470 O.co2 180  ASP180     -0.2456
     55  OD2       45.9320   19.2060   -0.4470 O.co2 180  ASP180     -0.2456
     56  N         49.1300   19.1960    2.8520 N.am  181  PHE181     -0.1976
     57  CA        50.4670   18.8190    2.4550 C.3   181  PHE181      0.1639
     58  C         51.4300   19.9920    2.5550 C.2   181  PHE181      0.2290
     59  O         52.5490   19.9510    2.0380 O.2   181  PHE181     -0.2864
     60  CB        50.5240   18.2050    1.0650 C.3   181  PHE181      0.0560
     61  CG        49.5770   17.0470    0.8760 C.ar  181  PHE181     -0.0200
     62  CD1       49.8690   15.7970    1.4140 C.ar  181  PHE181     -0.0042
     63  CD2       48.4030   17.2220    0.1650 C.ar  181  PHE181     -0.0042
     64  CE1       48.9850   14.7500    1.2400 C.ar  181  PHE181     -0.0003
     65  CE2       47.5290   16.1700   -0.0050 C.ar  181  PHE181     -0.0003
     66  CZ        47.8180   14.9460    0.5330 C.ar  181  PHE181     -0.0000
     67  N         41.5210   17.1250    9.8850 N.3   214  CYS214     -0.1221
     68  CA        41.7690   17.9450    8.7330 C.3   214  CYS214      0.1808
     69  C         40.8910   17.3060    7.6780 C.2   214  CYS214      0.2602
     70  O         39.7530   17.0030    7.9920 O.2   214  CYS214     -0.2717
     71  CB        43.2230   17.9760    8.3440 C.3   214  CYS214      0.0970
     72  SG        43.9050   16.4420    8.5070 S.3   214  CYS214     -0.0800
     73  N         41.3580   17.1660    6.4410 N.am  215  SER215     -0.1938
     74  CA        40.5320   16.5580    5.4090 C.3   215  SER215      0.2055
     75  C         40.6320   15.0210    5.5380 C.2   215  SER215      0.2643
     76  O         39.6370   14.3380    5.7730 O.2   215  SER215     -0.2714
     77  CB        40.9980   17.0280    4.0400 C.3   215  SER215      0.2130
     78  OG        40.0700   16.6520    3.0500 O.3   215  SER215     -0.2179
     79  N         41.8520   14.4820    5.4310 N.am  216  ALA216     -0.1963
     80  CA        42.0930   13.0380    5.5970 C.3   216  ALA216      0.1728
     81  C         42.2490   12.6660    7.0810 C.2   216  ALA216      0.2617
     82  O         42.0270   11.5220    7.4780 O.2   216  ALA216     -0.2715
     83  CB        43.3500   12.5950    4.8400 C.3   216  ALA216      0.0334
     84  N         42.6830   13.6360    7.8910 N.am  217  GLY217     -0.1940
     85  CA        42.8920   13.4040    9.3120 C.3   217  GLY217      0.2014
     86  C         44.2170   12.7390    9.6390 C.2   217  GLY217      0.2639
     87  O         44.3400   12.0400   10.6490 O.2   217  GLY217     -0.2714
     88  N         45.2250   12.9590    8.7880 N.am  218  ILE218     -0.1963
     89  CA        46.5380   12.3470    8.9850 C.3   218  ILE218      0.1727
     90  C         47.7440   13.2700    8.8380 C.2   218  ILE218      0.2617
     91  O         48.6580   13.2410    9.6660 O.2   218  ILE218     -0.2715
     92  CB        46.7290   11.1210    8.0410 C.3   218  ILE218      0.0290
     93  CG1       46.5350   11.5230    6.5790 C.3   218  ILE218      0.0022
     94  CG2       45.7490   10.0180    8.3980 C.3   218  ILE218      0.0023
     95  CD1       46.7850   10.3950    5.6330 C.3   218  ILE218      0.0001
     96  N         47.7010   14.1540    7.8500 N.am  219  GLY219     -0.1940
     97  CA        48.8320   15.0350    7.6190 C.3   219  GLY219      0.2014
     98  C         49.0100   16.1200    8.6420 C.2   219  GLY219      0.2638
     99  O         49.8850   16.0490    9.5110 O.2   219  GLY219     -0.2714
    100  N         48.2210   17.1780    8.4730 N.am  220  ARG220     -0.1977
    101  CA        48.2200   18.3090    9.3810 C.3   220  ARG220      0.1597
    102  C         47.8430   17.8930   10.8040 C.2   220  ARG220      0.2287
    103  O         48.3260   18.4630   11.7740 O.2   220  ARG220     -0.2864
    104  CB        47.2860   19.3870    8.8500 C.3   220  ARG220      0.0334
    105  CG        47.7660   19.9780    7.5380 C.3   220  ARG220      0.0492
    106  CD        46.7010   20.8270    6.8940 C.3   220  ARG220      0.2205
    107  NE        45.6860   19.9700    6.3010 N.pl3 220  ARG220     -0.0865
    108  CZ        44.7350   20.4060    5.4870 C.cat 220  ARG220      0.5346
    109  NH1       44.6710   21.6970    5.1860 N.pl3 220  ARG220      0.1354
    110  NH2       43.8900   19.5460    4.9380 N.pl3 220  ARG220      0.1354
    111  N         52.2290   13.7670    6.4320 N.3   261  GLN261     -0.1245
    112  CA        52.2970   13.4620    5.0110 C.3   261  GLN261      0.1566
    113  C         53.4920   13.8770    4.1960 C.2   261  GLN261      0.2260
    114  O         53.6910   13.3430    3.1130 O.2   261  GLN261     -0.2867
    115  CB        51.0290   13.9620    4.3190 C.3   261  GLN261      0.0367
    116  CG        49.8100   13.1230    4.6400 C.3   261  GLN261      0.0905
    117  CD        49.8680   11.7420    4.0160 C.2   261  GLN261      0.2608
    118  OE1       49.5820   11.5720    2.8290 O.2   261  GLN261     -0.2717
    119  NE2       50.2380   10.7470    4.8150 N.am  261  GLN261     -0.0878
    120  N         56.6560   18.5250    6.6610 N.3   265  GLN265     -0.1245
    121  CA        55.7830   18.5360    7.8390 C.3   265  GLN265      0.1566
    122  C         56.5600   17.9300    9.0140 C.2   265  GLN265      0.2260
    123  O         56.4130   18.3730   10.1530 O.2   265  GLN265     -0.2867
    124  CB        54.4940   17.7600    7.5870 C.3   265  GLN265      0.0367
    125  CG        53.5140   18.5360    6.7400 C.3   265  GLN265      0.0905
    126  CD        52.2330   17.7810    6.4390 C.2   265  GLN265      0.2608
    127  OE1       52.1620   16.5520    6.5620 O.2   265  GLN265     -0.2717
    128  NE2       51.2030   18.5150    6.0240 N.am  265  GLN265     -0.0878
@<TRIPOS>BOND
     1    23    21    1
     2    21    20    2
     3    21    22    1
     4    20    19    1
     5    19    18    1
     6    18    17    1
     7    31    29   ar
     8    47    46    1
     9    17    14    1
    10    30    29   ar
    11    46    45    1
    12    29    28    1
    13    55    53   ar
    14    14    13    1
    15    14    15    1
    16    13     3   am
    17     9     7   ar
    18     9    11   ar
    19    45    44    1
    20     7     6   ar
    21    28    25    1
    22    65    63   ar
    23    65    66   ar
    24    54    53   ar
    25    63    61   ar
    26    24    15   am
    27    24    25    1
    28    15    16    2
    29    53    52    1
    30    66    64   ar
    31    44    43    1
    32    39    40    1
    33    61    60    1
    34    61    62   ar
    35     2     3    1
    36     2     5    1
    37     2     1    1
    38    25    26    1
    39     3     4    2
    40    12    11    1
    41    11    10   ar
    42    60    57    1
    43     6     5    1
    44     6     8   ar
    45    51    50    2
    46    64    62   ar
    47    40    43    1
    48    40    41    1
    49    52    49    1
    50    59    58    2
    51    10     8   ar
    52    50    49    1
    53    50    56   am
    54    26    27    2
    55    26    32   am
    56    57    58    1
    57    57    56    1
    58    48    49    1
    59   118   117    2
    60    32    33    1
    61    41    42    2
    62    78    77    1
    63   114   113    2
    64    38    36    1
    65   117   116    1
    66   117   119   am
    67    77    74    1
    68   113   112    1
    69   115   116    1
    70   115   112    1
    71    33    36    1
    72    33    34    1
    73    36    37    1
    74    83    80    1
    75   110   108    1
    76   112   111    1
    77   109   108    1
    78    34    35    2
    79    74    75    1
    80    74    73    1
    81    79    75   am
    82    79    80    1
    83   108   107    2
    84    75    76    2
    85    80    81    1
    86    95    93    1
    87   128   126   am
    88   107   106    1
    89   126   127    2
    90   126   125    1
    91    73    69   am
    92    93    92    1
    93   120   121    1
    94   125   124    1
    95   106   105    1
    96    81    82    2
    97    81    84   am
    98   105   104    1
    99   124   121    1
   100    97    96    1
   101    97    98    1
   102    69    70    2
   103    69    68    1
   104   121   122    1
   105    96    90   am
   106    84    85    1
   107    92    94    1
   108    92    89    1
   109    71    72    1
   110    71    68    1
   111   100    98   am
   112   100   101    1
   113    98    99    2
   114    68    67    1
   115    88    89    1
   116    88    86   am
   117    90    89    1
   118    90    91    2
   119   104   101    1
   120   122   123    2
   121    85    86    1
   122   101   102    1
   123    86    87    2
   124   102   103    2
