@<TRIPOS>MOLECULE
tmp/1bzlB01.pdb
 97 96 0 0 0
SMALL
GASTEIGER

@<TRIPOS>ATOM
      1  N         28.3000    5.7530    7.6640 N.3   392  PHE392     -0.1227
      2  CA        27.5890    5.0460    6.6040 C.3   392  PHE392      0.1736
      3  C         28.2800    3.7220    6.2850 C.2   392  PHE392      0.2596
      4  O         29.4890    3.5940    6.4650 O.2   392  PHE392     -0.2718
      5  CB        27.5290    5.9270    5.3220 C.3   392  PHE392      0.0547
      6  CG        28.8790    6.2570    4.7560 C.ar  392  PHE392     -0.0202
      7  CD1       29.6480    7.2780    5.3110 C.ar  392  PHE392     -0.0042
      8  CD2       29.4080    5.5080    3.7050 C.ar  392  PHE392     -0.0042
      9  CE1       30.9400    7.5460    4.8310 C.ar  392  PHE392     -0.0003
     10  CE2       30.7040    5.7650    3.2110 C.ar  392  PHE392     -0.0003
     11  CZ        31.4710    6.7850    3.7770 C.ar  392  PHE392     -0.0000
     12  N         27.5050    2.7300    5.8570 N.am  393  THR393     -0.1939
     13  CA        28.0820    1.4460    5.4870 C.3   393  THR393      0.2013
     14  C         28.4610    1.5840    4.0160 C.2   393  THR393      0.2484
     15  O         27.5950    1.8770    3.1880 O.2   393  THR393     -0.2729
     16  CB        27.0760    0.2790    5.5620 C.3   393  THR393      0.1807
     17  OG1       26.3630    0.3180    6.7960 O.3   393  THR393     -0.2208
     18  CG2       27.8090   -1.0550    5.5950 C.3   393  THR393      0.0379
     19  N         29.7550    1.4500    3.6810 N.am  394  PRO394     -0.2715
     20  CA        30.1770    1.5700    2.2820 C.3   394  PRO394      0.1536
     21  C         29.4250    0.5980    1.3760 C.2   394  PRO394      0.2598
     22  O         28.8780   -0.4160    1.8160 O.2   394  PRO394     -0.2715
     23  CB        31.6490    1.2360    2.3460 C.3   394  PRO394      0.0310
     24  CG        32.0520    1.7660    3.6860 C.3   394  PRO394      0.0237
     25  CD        30.9210    1.2800    4.5640 C.3   394  PRO394      0.0939
     26  N         29.4580    0.8960    0.0890 N.am  395  LEU395     -0.1978
     27  CA        28.8090    0.1290   -0.9700 C.3   395  LEU395      0.1596
     28  C         29.2200   -1.3400   -0.8900 C.2   395  LEU395      0.2287
     29  O         28.3910   -2.2320   -0.6860 O.2   395  LEU395     -0.2864
     30  CB        29.1880    0.7340   -2.3760 C.3   395  LEU395      0.0297
     31  CG        28.5800    0.4480   -3.7700 C.3   395  LEU395      0.0022
     32  CD1       27.0900    0.7950   -3.8110 C.3   395  LEU395      0.0001
     33  CD2       29.3190    1.3020   -4.8070 C.3   395  LEU395      0.0001
     34  N         33.7170   15.8360   -6.0950 N.3   455  GLY455     -0.1225
     35  CA        34.1640   14.5300   -5.6500 C.3   455  GLY455      0.1811
     36  C         34.5070   13.5220   -6.7270 C.2   455  GLY455      0.2280
     37  O         34.1430   13.6950   -7.8870 O.2   455  GLY455     -0.2866
     38  N         33.9800    9.8060   -7.8010 N.3   457  HIS457     -0.1227
     39  CA        32.8870    8.8980   -7.5200 C.3   457  HIS457      0.1737
     40  C         32.9910    7.6030   -8.3250 C.2   457  HIS457      0.2438
     41  O         33.2050    7.6650   -9.5350 O.2   457  HIS457     -0.2733
     42  CB        31.5750    9.6770   -7.8470 C.3   457  HIS457      0.0758
     43  CG        30.3300    8.8620   -7.7840 C.ar  457  HIS457      0.0818
     44  ND1       29.7610    8.4720   -6.5920 N.ar  457  HIS457     -0.2268
     45  CD2       29.5060    8.4170   -8.7630 C.ar  457  HIS457      0.1154
     46  CE1       28.6430    7.8170   -6.8390 C.ar  457  HIS457      0.1986
     47  NE2       28.4650    7.7700   -8.1480 N.ar  457  HIS457     -0.2212
     48  N         32.8210    6.4280   -7.6810 N.am  458  PRO458     -0.2718
     49  CA        32.5420    6.1990   -6.2530 C.3   458  PRO458      0.1535
     50  C         33.7350    5.9320   -5.3260 C.2   458  PRO458      0.2599
     51  O         34.5800    5.0910   -5.6340 O.2   458  PRO458     -0.2715
     52  CB        31.6080    4.9390   -6.2710 C.3   458  PRO458      0.0310
     53  CG        31.3870    4.6350   -7.7590 C.3   458  PRO458      0.0237
     54  CD        32.6090    5.1830   -8.4330 C.3   458  PRO458      0.0939
     55  N         33.8070    6.6460   -4.2090 N.am  459  THR459     -0.1937
     56  CA        34.8890    6.4600   -3.2510 C.3   459  THR459      0.2028
     57  C         34.3960    6.7890   -1.8340 C.2   459  THR459      0.2642
     58  O         33.3170    7.3620   -1.6710 O.2   459  THR459     -0.2714
     59  CB        36.1020    7.3950   -3.5160 C.3   459  THR459      0.1808
     60  OG1       35.6810    8.7480   -3.4980 O.3   459  THR459     -0.2208
     61  CG2       36.7680    7.0920   -4.8560 C.3   459  THR459      0.0379
     62  N         35.1830    6.3970   -0.7970 N.am  460  SER460     -0.1949
     63  CA        34.8160    6.7160    0.5830 C.3   460  SER460      0.1924
     64  C         35.1850    8.1720    0.8540 C.2   460  SER460      0.2314
     65  O         34.4630    8.9050    1.5290 O.2   460  SER460     -0.2863
     66  CB        35.5630    5.7930    1.5930 C.3   460  SER460      0.2116
     67  OG        35.0530    4.4710    1.5770 O.3   460  SER460     -0.2180
     68  N         35.0700   10.8230   -1.0300 N.3   462  GLU462     -0.1231
     69  CA        34.2040   11.9050   -1.4960 C.3   462  GLU462      0.1699
     70  C         33.2170   12.3960   -0.4440 C.2   462  GLU462      0.2592
     71  O         32.6640   13.4900   -0.5760 O.2   462  GLU462     -0.2718
     72  CB        33.4420   11.4880   -2.7710 C.3   462  GLU462      0.0402
     73  CG        32.3660   10.4050   -2.5550 C.3   462  GLU462      0.1161
     74  CD        31.5840   10.0900   -3.8320 C.2   462  GLU462      0.3649
     75  OE1       31.1940   11.0310   -4.5200 O.co2 462  GLU462     -0.2457
     76  OE2       31.3720    8.9070   -4.1300 O.co2 462  GLU462     -0.2457
     77  N         32.9900   11.5890    0.5910 N.am  463  GLU463     -0.1979
     78  CA        32.0730   11.9640    1.6570 C.3   463  GLU463      0.1602
     79  C         32.5280   13.2200    2.3840 C.2   463  GLU463      0.2287
     80  O         31.7200   13.9280    2.9810 O.2   463  GLU463     -0.2864
     81  CB        31.9150   10.8440    2.6170 C.3   463  GLU463      0.0415
     82  CG        31.2630    9.6440    2.0120 C.3   463  GLU463      0.1163
     83  CD        29.9180    9.9670    1.3690 C.2   463  GLU463      0.3649
     84  OE1       29.1080   10.6690    2.0030 O.co2 463  GLU463     -0.2457
     85  OE2       29.6920    9.5220    0.2320 O.co2 463  GLU463     -0.2457
     86  N         33.6310   15.7710    0.9230 N.3   465  CYS465     -0.1221
     87  CA        33.2360   16.8820    0.0630 C.3   465  CYS465      0.1808
     88  C         31.7190   17.0570    0.0100 C.2   465  CYS465      0.2601
     89  O         31.1970   17.9020   -0.7140 O.2   465  CYS465     -0.2717
     90  CB        33.7930   16.6740   -1.3420 C.3   465  CYS465      0.0970
     91  SG        35.5970   16.6380   -1.3680 S.3   465  CYS465     -0.0800
     92  N         31.0160   16.2610    0.8110 N.am  466  SER466     -0.1952
     93  CA        29.5620   16.3020    0.8740 C.3   466  SER466      0.1924
     94  C         29.0420   16.6890    2.2670 C.2   466  SER466      0.2314
     95  O         27.8460   16.5880    2.5360 O.2   466  SER466     -0.2863
     96  CB        29.0090   14.9670    0.4580 C.3   466  SER466      0.2116
     97  OG        29.5430   14.5840   -0.8020 O.3   466  SER466     -0.2180
@<TRIPOS>BOND
     1    41    40    2
     2    45    47   ar
     3    45    43   ar
     4    54    53    1
     5    54    48    1
     6    40    48   am
     7    40    39    1
     8    47    46   ar
     9    37    36    2
    10    42    43    1
    11    42    39    1
    12    38    39    1
    13    43    44   ar
    14    53    52    1
    15    48    49    1
    16    46    44   ar
    17    36    35    1
    18    52    49    1
    19    49    50    1
    20    34    35    1
    21    51    50    2
    22    50    55   am
    23    61    59    1
    24    33    31    1
    25    75    74   ar
    26    55    56    1
    27    76    74   ar
    28    74    73    1
    29    32    31    1
    30    31    30    1
    31    59    60    1
    32    59    56    1
    33    56    57    1
    34    72    73    1
    35    72    69    1
    36    30    27    1
    37    57    58    2
    38    57    62   am
    39    69    68    1
    40    69    70    1
    41    91    90    1
    42    90    87    1
    43    27    28    1
    44    27    26    1
    45    28    29    2
    46    97    96    1
    47    62    63    1
    48    89    88    2
    49    71    70    2
    50    70    77   am
    51    88    87    1
    52    88    92   am
    53    87    86    1
    54    26    21   am
    55    85    83   ar
    56    96    93    1
    57    63    64    1
    58    63    66    1
    59    77    78    1
    60    92    93    1
    61    64    65    2
    62    93    94    1
    63    83    84   ar
    64    83    82    1
    65    21    22    2
    66    21    20    1
    67    67    66    1
    68    78    79    1
    69    78    81    1
    70    82    81    1
    71    94    95    2
    72    20    23    1
    73    20    19    1
    74    23    24    1
    75    79    80    2
    76    15    14    2
    77    10     8   ar
    78    10    11   ar
    79    19    14   am
    80    19    25    1
    81    24    25    1
    82     8     6   ar
    83    11     9   ar
    84    14    13    1
    85     6     7   ar
    86     6     5    1
    87     9     7   ar
    88     5     2    1
    89    13    16    1
    90    13    12    1
    91    16    18    1
    92    16    17    1
    93    12     3   am
    94     3     4    2
    95     3     2    1
    96     2     1    1
