@<TRIPOS>MOLECULE
tmp/1bzlB02.pdb
 131 123 0 0 0
SMALL
GASTEIGER

@<TRIPOS>ATOM
      1  N         65.5620    6.4000   12.6350 N.3    11  SER11      -0.1217
      2  CA        64.8500    7.2750   11.7020 C.3    11  SER11       0.1889
      3  C         65.4130    8.7010   11.6860 C.2    11  SER11       0.2288
      4  O         65.6920    9.2470   10.6210 O.2    11  SER11      -0.2866
      5  CB        63.3630    7.3120   12.0510 C.3    11  SER11       0.2089
      6  OG        62.8080    6.0070   12.0940 O.3    11  SER11      -0.2183
      7  N         69.9370    8.6270   11.3540 N.3    14  LEU14      -0.1231
      8  CA        70.3860    8.3770    9.9900 C.3    14  LEU14       0.1693
      9  C         70.0660    9.5600    9.0820 C.2    14  LEU14       0.2591
     10  O         70.8710    9.8920    8.2120 O.2    14  LEU14      -0.2718
     11  CB        69.7400    7.1050    9.4370 C.3    14  LEU14       0.0284
     12  CG        70.1690    5.7370    9.9600 C.3    14  LEU14       0.0019
     13  CD1       69.2470    4.6550    9.4410 C.3    14  LEU14       0.0001
     14  CD2       71.6100    5.4630    9.5510 C.3    14  LEU14       0.0001
     15  N         68.9040   10.1980    9.2950 N.am   15  GLU15      -0.1979
     16  CA        68.5090   11.3480    8.4860 C.3    15  GLU15       0.1602
     17  C         69.4980   12.4980    8.6880 C.2    15  GLU15       0.2287
     18  O         69.9380   13.1400    7.7280 O.2    15  GLU15      -0.2864
     19  CB        67.0890   11.7950    8.8590 C.3    15  GLU15       0.0415
     20  CG        66.5440   13.0000    8.0410 C.3    15  GLU15       0.1163
     21  CD        66.2460   12.6680    6.5570 C.2    15  GLU15       0.3649
     22  OE1       66.2660   11.4880    6.1700 O.co2  15  GLU15      -0.2457
     23  OE2       65.9820   13.6020    5.8050 O.co2  15  GLU15      -0.2457
     24  N         73.0250   11.5390    7.3880 N.3    18  TRP18      -0.1241
     25  CA        73.0750   11.5470    5.9350 C.3    18  TRP18       0.1605
     26  C         73.2260   12.9430    5.3390 C.2    18  TRP18       0.2264
     27  O         74.2910   13.2660    4.8110 O.2    18  TRP18      -0.2867
     28  CB        71.8450   10.8630    5.3440 C.3    18  TRP18       0.0550
     29  CG        71.7650   10.9820    3.8450 C.ar   18  TRP18       0.0003
     30  CD1       70.9960   11.8530    3.1260 C.ar   18  TRP18       0.0946
     31  CD2       72.5010   10.2140    2.8820 C.ar   18  TRP18       0.0152
     32  NE1       71.2100   11.6760    1.7810 N.ar   18  TRP18      -0.2442
     33  CE2       72.1260   10.6750    1.6040 C.ar   18  TRP18       0.0810
     34  CE3       73.4420    9.1790    2.9860 C.ar   18  TRP18       0.0012
     35  CZ2       72.6600   10.1350    0.4280 C.ar   18  TRP18       0.0191
     36  CZ3       73.9720    8.6430    1.8180 C.ar   18  TRP18       0.0001
     37  CH2       73.5780    9.1230    0.5550 C.ar   18  TRP18       0.0015
     38  N         61.5230    1.8340   13.9830 N.3    49  CYS49      -0.1221
     39  CA        60.5680    1.7050   12.8840 C.3    49  CYS49       0.1808
     40  C         60.9130    0.5440   11.9630 C.2    49  CYS49       0.2601
     41  O         60.0840   -0.3340   11.7100 O.2    49  CYS49      -0.2717
     42  CB        60.5010    2.9980   12.0800 C.3    49  CYS49       0.0970
     43  SG        59.3170    3.0100   10.7000 S.3    49  CYS49      -0.0800
     44  N         62.1340    0.5380   11.4950 N.am   50  VAL50      -0.1979
     45  CA        62.6180   -0.4940   10.5900 C.3    50  VAL50       0.1595
     46  C         62.7150   -1.8880   11.1970 C.2    50  VAL50       0.2287
     47  O         62.2380   -2.8500   10.5990 O.2    50  VAL50      -0.2864
     48  CB        63.9940   -0.0240   10.0530 C.3    50  VAL50       0.0276
     49  CG1       64.6830   -1.1460    9.2730 C.3    50  VAL50       0.0022
     50  CG2       63.8170    1.1850    9.1210 C.3    50  VAL50       0.0022
     51  N         57.6130   -0.7490    9.7550 N.3    55  VAL55      -0.1245
     52  CA        57.8270   -1.7160    8.6820 C.3    55  VAL55       0.1561
     53  C         57.3350   -3.1240    9.0260 C.2    55  VAL55       0.2260
     54  O         56.4020   -3.6080    8.3780 O.2    55  VAL55      -0.2867
     55  CB        59.3020   -1.6120    8.2260 C.3    55  VAL55       0.0252
     56  CG1       59.5960   -2.6350    7.1340 C.3    55  VAL55       0.0019
     57  CG2       59.5870   -0.2100    7.7040 C.3    55  VAL55       0.0019
     58  N         53.5040   -3.2970    9.7050 N.3    58  LYS58      -0.1245
     59  CA        52.6830   -3.0450    8.5300 C.3    58  LYS58       0.1561
     60  C         52.5490   -4.3170    7.6840 C.2    58  LYS58       0.2260
     61  O         51.4580   -4.6300    7.2040 O.2    58  LYS58      -0.2867
     62  CB        53.2750   -1.8880    7.7130 C.3    58  LYS58       0.0271
     63  CG        52.4320   -1.4410    6.5260 C.3    58  LYS58       0.0035
     64  CD        51.0300   -1.0340    6.9480 C.3    58  LYS58       0.0206
     65  CE        50.1390   -0.7630    5.7470 C.3    58  LYS58       0.1093
     66  NZ        50.4870    0.4900    5.0300 N.3    58  LYS58      -0.1314
     67  N         66.7150   -4.4290    4.4630 N.3   103  ILE103     -0.1245
     68  CA        66.7930   -3.0060    4.7850 C.3   103  ILE103      0.1561
     69  C         67.9990   -2.7220    5.6840 C.2   103  ILE103      0.2260
     70  O         68.6430   -1.6800    5.5330 O.2   103  ILE103     -0.2867
     71  CB        65.4300   -2.5630    5.3650 C.3   103  ILE103      0.0252
     72  CG1       64.3260   -2.7640    4.3060 C.3   103  ILE103      0.0019
     73  CG2       65.4880   -1.1000    5.7900 C.3   103  ILE103      0.0019
     74  CD1       62.8960   -2.5090    4.8160 C.3   103  ILE103      0.0001
     75  N         70.9270   -2.6940    3.3910 N.3   106  SER106     -0.1202
     76  CA        70.8950   -1.4850    2.5810 C.3   106  SER106      0.2020
     77  C         71.5680   -0.3120    3.3080 C.2   106  SER106      0.2618
     78  O         72.2370    0.5170    2.6880 O.2   106  SER106     -0.2717
     79  CB        69.4450   -1.1480    2.2250 C.3   106  SER106      0.2103
     80  OG        69.3650   -0.0420    1.3430 O.3   106  SER106     -0.2182
     81  N         71.4130   -0.2630    4.6320 N.am  107  TYR107     -0.1975
     82  CA        72.0310    0.8240    5.3780 C.3   107  TYR107      0.1639
     83  C         73.5280    0.6060    5.5590 C.2   107  TYR107      0.2290
     84  O         74.3060    1.5600    5.5100 O.2   107  TYR107     -0.2864
     85  CB        71.3320    1.0190    6.7330 C.3   107  TYR107      0.0560
     86  CG        69.9870    1.7160    6.6310 C.ar  107  TYR107     -0.0198
     87  CD1       69.9010    3.0410    6.2030 C.ar  107  TYR107     -0.0009
     88  CD2       68.8020    1.0540    6.9620 C.ar  107  TYR107     -0.0009
     89  CE1       68.6730    3.6950    6.1160 C.ar  107  TYR107      0.0417
     90  CE2       67.5640    1.7030    6.8760 C.ar  107  TYR107      0.0417
     91  CZ        67.5120    3.0210    6.4490 C.ar  107  TYR107      0.1957
     92  OH        66.3030    3.6720    6.3550 O.3   107  TYR107     -0.2866
     93  N         75.1380    1.6960    2.6150 N.3   110  MET110     -0.1245
     94  CA        75.1400    3.1540    2.6320 C.3   110  MET110      0.1570
     95  C         76.3920    3.7400    3.2830 C.2   110  MET110      0.2261
     96  O         76.9570    4.7040    2.7590 O.2   110  MET110     -0.2867
     97  CB        73.8890    3.6910    3.3510 C.3   110  MET110      0.0387
     98  CG        73.8390    5.2200    3.4520 C.3   110  MET110      0.0595
     99  SD        72.5010    5.8590    4.4820 S.3   110  MET110     -0.1393
    100  CE        73.3890    6.3380    5.9220 C.3   110  MET110      0.0692
    101  N         57.8490    8.3490   13.2080 N.3   331  THR331     -0.1204
    102  CA        59.0220    8.4280   12.3340 C.3   331  THR331      0.1979
    103  C         59.1250    9.6800   11.4530 C.2   331  THR331      0.2459
    104  O         60.1970   10.2890   11.3760 O.2   331  THR331     -0.2732
    105  CB        59.0720    7.0990   11.5600 C.3   331  THR331      0.1783
    106  OG1       59.5360    6.1540   12.5110 O.3   331  THR331     -0.2211
    107  CG2       59.9370    7.2040   10.2990 C.3   331  THR331      0.0376
    108  N         58.0330   10.0730   10.7730 N.am  332  PRO332     -0.2728
    109  CA        58.1400   11.2690    9.9340 C.3   332  PRO332      0.1401
    110  C         58.5110   12.4960   10.7590 C.2   332  PRO332      0.2269
    111  O         59.2740   13.3460   10.3080 O.2   332  PRO332     -0.2865
    112  CB        56.7580   11.3920    9.3480 C.3   332  PRO332      0.0296
    113  CG        56.2910    9.9750    9.2750 C.3   332  PRO332      0.0237
    114  CD        56.7110    9.4480   10.6110 C.3   332  PRO332      0.0939
    115  N         62.2260   12.4840   11.5280 N.3   335  ILE335     -0.1245
    116  CA        62.9610   12.7750   10.3010 C.3   335  ILE335      0.1561
    117  C         62.9700   14.2700   10.0170 C.2   335  ILE335      0.2260
    118  O         64.0050   14.8320    9.6380 O.2   335  ILE335     -0.2867
    119  CB        62.3090   11.9080    9.1950 C.3   335  ILE335      0.0252
    120  CG1       62.7630   10.4820    9.3270 C.3   335  ILE335      0.0019
    121  CG2       62.6680   12.4210    7.8140 C.3   335  ILE335      0.0019
    122  CD1       62.1120    9.5410    8.3220 C.3   335  ILE335      0.0001
    123  N         45.4850    6.2220    3.9860 N.3   432  GLU432     -0.1245
    124  CA        45.8000    6.7740    2.6690 C.3   432  GLU432      0.1567
    125  C         45.0280    8.0740    2.3970 C.2   432  GLU432      0.2260
    126  O         45.5550    9.0050    1.7890 O.2   432  GLU432     -0.2867
    127  CB        45.4740    5.7370    1.5470 C.3   432  GLU432      0.0388
    128  CG        46.3030    4.4540    1.5840 C.3   432  GLU432      0.1160
    129  CD        47.7650    4.6620    1.1990 C.2   432  GLU432      0.3649
    130  OE1       48.1120    5.7160    0.6690 O.co2 432  GLU432     -0.2457
    131  OE2       48.5510    3.7550    1.4220 O.co2 432  GLU432     -0.2457
@<TRIPOS>BOND
     1    35    37   ar
     2    35    33   ar
     3    37    36   ar
     4   130   129   ar
     5   129   131   ar
     6   129   128    1
     7    80    79    1
     8   127   128    1
     9   127   124    1
    10    33    32   ar
    11    33    31   ar
    12    32    30   ar
    13   126   125    2
    14    36    34   ar
    15    79    76    1
    16   125   124    1
    17    76    77    1
    18    76    75    1
    19    93    94    1
    20    94    95    1
    21    94    97    1
    22   124   123    1
    23    78    77    2
    24    96    95    2
    25    31    34   ar
    26    31    29   ar
    27    30    29   ar
    28    77    81   am
    29    97    98    1
    30    98    99    1
    31    29    28    1
    32    72    74    1
    33    72    71    1
    34    67    68    1
    35    99   100    1
    36    81    82    1
    37    68    71    1
    38    68    69    1
    39    27    26    2
    40    66    65    1
    41    26    25    1
    42    28    25    1
    43    71    73    1
    44    82    83    1
    45    82    85    1
    46    84    83    2
    47    70    69    2
    48    65    64    1
    49    23    21   ar
    50    25    24    1
    51    89    87   ar
    52    89    91   ar
    53    22    21   ar
    54    87    86   ar
    55    92    91    1
    56    91    90   ar
    57    63    64    1
    58    63    62    1
    59    21    20    1
    60    86    85    1
    61    86    88   ar
    62    90    88   ar
    63    56    55    1
    64    61    60    2
    65    60    59    1
    66    57    55    1
    67    62    59    1
    68    18    17    2
    69   121   119    1
    70    20    19    1
    71    10     9    2
    72    55    52    1
    73   122   120    1
    74    54    53    2
    75    16    17    1
    76    16    19    1
    77    16    15    1
    78    59    58    1
    79    52    53    1
    80    52    51    1
    81     9    15   am
    82     9     8    1
    83    50    48    1
    84   119   120    1
    85   119   116    1
    86    49    48    1
    87   113   112    1
    88   113   114    1
    89   112   109    1
    90    11    12    1
    91    11     8    1
    92    13    12    1
    93    14    12    1
    94   118   117    2
    95   109   110    1
    96   109   108    1
    97     8     7    1
    98   117   116    1
    99    48    45    1
   100   107   105    1
   101   116   115    1
   102   111   110    2
   103    45    46    1
   104    45    44    1
   105    47    46    2
   106   114   108    1
   107     4     3    2
   108    43    42    1
   109   108   103   am
   110   104   103    2
   111   103   102    1
   112    44    40   am
   113   105   102    1
   114   105   106    1
   115     3     2    1
   116     2     5    1
   117     2     1    1
   118    41    40    2
   119    40    39    1
   120     5     6    1
   121    42    39    1
   122   102   101    1
   123    39    38    1
