@<TRIPOS>MOLECULE
tmp/1bzmA00.pdb
 146 144 0 0 0
SMALL
GASTEIGER

@<TRIPOS>ATOM
      1  N         42.7340    9.7290  -19.8120 N.3    67  HIS67      -0.1241
      2  CA        41.3990    9.2400  -19.4450 C.3    67  HIS67       0.1621
      3  C         41.4230    7.7230  -19.3450 C.2    67  HIS67       0.2264
      4  O         42.1460    7.0720  -20.1160 O.2    67  HIS67      -0.2867
      5  CB        40.2890    9.6050  -20.4760 C.3    67  HIS67       0.0745
      6  CG        40.0900   11.0680  -20.6700 C.ar   67  HIS67       0.0817
      7  ND1       39.4630   11.6120  -21.7770 N.ar   67  HIS67      -0.2268
      8  CD2       40.4410   12.1090  -19.9010 C.ar   67  HIS67       0.1154
      9  CE1       39.4450   12.9660  -21.6400 C.ar   67  HIS67       0.1986
     10  NE2       40.0470   13.2460  -20.4860 N.ar   67  HIS67      -0.2212
     11  N         31.2140    6.0420  -17.8380 N.3    91  PHE91      -0.1227
     12  CA        31.9610    6.1500  -19.0850 C.3    91  PHE91       0.1736
     13  C         33.4670    6.4350  -18.8680 C.2    91  PHE91       0.2595
     14  O         34.2600    6.1280  -19.7820 O.2    91  PHE91      -0.2718
     15  CB        31.3580    7.0230  -20.1760 C.3    91  PHE91       0.0547
     16  CG        31.3450    8.5290  -19.9920 C.ar   91  PHE91      -0.0202
     17  CD1       30.3240    9.1450  -19.2600 C.ar   91  PHE91      -0.0042
     18  CD2       32.3650    9.2940  -20.5360 C.ar   91  PHE91      -0.0042
     19  CE1       30.2990   10.5440  -19.1390 C.ar   91  PHE91      -0.0003
     20  CE2       32.3870   10.6890  -20.3520 C.ar   91  PHE91      -0.0003
     21  CZ        31.3240   11.3470  -19.6670 C.ar   91  PHE91      -0.0000
     22  N         33.8160    7.0990  -17.7660 N.am   92  GLN92      -0.1979
     23  CA        35.2600    7.4320  -17.6270 C.3    92  GLN92       0.1601
     24  C         35.5640    8.0110  -16.2340 C.2    92  GLN92       0.2287
     25  O         34.6710    8.4580  -15.5500 O.2    92  GLN92      -0.2864
     26  CB        35.5040    8.5340  -18.7010 C.3    92  GLN92       0.0394
     27  CG        36.7860    9.3440  -18.5010 C.3    92  GLN92       0.0908
     28  CD        36.7860   10.5840  -19.3620 C.2    92  GLN92       0.2608
     29  OE1       36.8120   11.7200  -18.9270 O.2    92  GLN92      -0.2717
     30  NE2       36.7640   10.3110  -20.6630 N.am   92  GLN92      -0.0878
     31  N         39.0720   10.4300  -14.5790 N.3    94  HIS94      -0.1241
     32  CA        40.3340   11.1340  -14.9110 C.3    94  HIS94       0.1621
     33  C         40.6850   11.9560  -13.6490 C.2    94  HIS94       0.2264
     34  O         39.8390   11.9940  -12.7480 O.2    94  HIS94      -0.2867
     35  CB        40.2640   12.0480  -16.1590 C.3    94  HIS94       0.0745
     36  CG        39.1960   13.1120  -16.0510 C.ar   94  HIS94       0.0817
     37  ND1       37.9310   12.9410  -16.5770 N.ar   94  HIS94      -0.2268
     38  CD2       39.1740   14.2700  -15.3400 C.ar   94  HIS94       0.1154
     39  CE1       37.2340   14.0170  -16.2570 C.ar   94  HIS94       0.1986
     40  NE2       37.9130   14.8440  -15.4910 N.ar   94  HIS94      -0.2212
     41  N         42.7970   15.7550  -12.1100 N.3    96  HIS96      -0.1241
     42  CA        43.2430   17.1500  -12.2530 C.3    96  HIS96       0.1621
     43  C         44.3350   17.3830  -11.1840 C.2    96  HIS96       0.2264
     44  O         44.1810   16.8850  -10.0550 O.2    96  HIS96      -0.2867
     45  CB        42.1300   18.1920  -12.0780 C.3    96  HIS96       0.0745
     46  CG        41.1720   18.1310  -13.2290 C.ar   96  HIS96       0.0817
     47  ND1       41.1860   18.9710  -14.2980 N.ar   96  HIS96      -0.2268
     48  CD2       40.0910   17.3140  -13.3540 C.ar   96  HIS96       0.1154
     49  CE1       40.1930   18.6660  -15.1090 C.ar   96  HIS96       0.1986
     50  NE2       39.4820   17.6910  -14.5380 N.ar   96  HIS96      -0.2212
     51  N         37.6870   12.7300  -10.8300 N.3   119  HIS119     -0.1241
     52  CA        36.3610   12.8990  -11.4550 C.3   119  HIS119      0.1621
     53  C         35.9160   11.5640  -12.0660 C.2   119  HIS119      0.2264
     54  O         36.6930   10.9850  -12.9050 O.2   119  HIS119     -0.2867
     55  CB        36.3640   13.9930  -12.5700 C.3   119  HIS119      0.0745
     56  CG        36.5680   15.3760  -12.0800 C.ar  119  HIS119      0.0817
     57  ND1       36.8580   16.5040  -12.7870 N.ar  119  HIS119     -0.2268
     58  CD2       36.4330   15.8110  -10.7580 C.ar  119  HIS119      0.1154
     59  CE1       36.9160   17.5820  -12.0350 C.ar  119  HIS119      0.1986
     60  NE2       36.7200   17.1430  -10.7660 N.ar  119  HIS119     -0.2212
     61  N         32.8640   10.2060  -14.1950 N.3   121  ALA121     -0.1245
     62  CA        31.7720   10.7810  -15.0110 C.3   121  ALA121      0.1562
     63  C         30.8160    9.6890  -15.5020 C.2   121  ALA121      0.2260
     64  O         31.2310    8.5540  -15.7870 O.2   121  ALA121     -0.2867
     65  CB        32.4340   11.5210  -16.2010 C.3   121  ALA121      0.0290
     66  N         26.2830    9.5200  -25.4020 N.3   131  LEU131     -0.1245
     67  CA        26.9800   10.5480  -24.6350 C.3   131  LEU131      0.1561
     68  C         27.0340   11.8360  -25.4440 C.2   131  LEU131      0.2260
     69  O         26.9850   12.9420  -24.8870 O.2   131  LEU131     -0.2867
     70  CB        28.3870    9.9840  -24.3030 C.3   131  LEU131      0.0270
     71  CG        29.3590   11.0130  -23.7620 C.3   131  LEU131      0.0019
     72  CD1       28.9450   11.4060  -22.3360 C.3   131  LEU131      0.0001
     73  CD2       30.7600   10.4110  -23.7620 C.3   131  LEU131      0.0001
     74  N         25.7050   15.1950  -23.5190 N.3   135  ALA135     -0.1245
     75  CA        26.7850   16.1000  -23.1690 C.3   135  ALA135      0.1562
     76  C         26.4140   17.5450  -23.1310 C.2   135  ALA135      0.2260
     77  O         27.0320   18.3600  -22.3670 O.2   135  ALA135     -0.2867
     78  CB        28.0550   15.8060  -23.9750 C.3   135  ALA135      0.0290
     79  N         24.8580   14.9790  -17.6960 N.3   141  LEU141     -0.1245
     80  CA        25.8830   14.2150  -16.9990 C.3   141  LEU141      0.1561
     81  C         25.8340   14.3380  -15.4650 C.2   141  LEU141      0.2260
     82  O         25.3480   15.2920  -14.9170 O.2   141  LEU141     -0.2867
     83  CB        27.2260   14.8330  -17.5590 C.3   141  LEU141      0.0270
     84  CG        27.3980   14.9860  -19.0680 C.3   141  LEU141      0.0019
     85  CD1       28.7120   15.6790  -19.3870 C.3   141  LEU141      0.0001
     86  CD2       27.3190   13.6200  -19.7270 C.3   141  LEU141      0.0001
     87  N         28.8970   13.8770  -12.4610 N.3   143  VAL143     -0.1245
     88  CA        30.2990   13.6520  -12.1060 C.3   143  VAL143      0.1561
     89  C         30.4670   13.6640  -10.5700 C.2   143  VAL143      0.2260
     90  O         30.0350   14.6130   -9.9190 O.2   143  VAL143     -0.2867
     91  CB        31.2350   14.6900  -12.7690 C.3   143  VAL143      0.0252
     92  CG1       32.7070   14.3010  -12.4770 C.3   143  VAL143      0.0019
     93  CG2       30.9470   14.7720  -14.2580 C.3   143  VAL143      0.0019
     94  N         31.0120   21.4900  -17.3290 N.3   198  LEU198     -0.1231
     95  CA        32.2800   20.8030  -17.6490 C.3   198  LEU198      0.1693
     96  C         33.3390   21.8210  -17.2120 C.2   198  LEU198      0.2593
     97  O         33.1160   23.0480  -17.4010 O.2   198  LEU198     -0.2718
     98  CB        32.3470   20.4630  -19.1470 C.3   198  LEU198      0.0284
     99  CG        31.3520   19.5060  -19.7620 C.3   198  LEU198      0.0019
    100  CD1       31.5300   19.4530  -21.2780 C.3   198  LEU198      0.0001
    101  CD2       31.5180   18.1560  -19.0990 C.3   198  LEU198      0.0001
    102  N         34.4760   21.3320  -16.6990 N.am  199  THR199     -0.1939
    103  CA        35.4710   22.3330  -16.2120 C.3   199  THR199      0.2028
    104  C         36.4790   22.7620  -17.2620 C.2   199  THR199      0.2642
    105  O         37.3480   23.5570  -16.9560 O.2   199  THR199     -0.2714
    106  CB        36.1330   21.8110  -14.8940 C.3   199  THR199      0.1808
    107  OG1       36.9060   20.6430  -15.2750 O.3   199  THR199     -0.2208
    108  CG2       35.0490   21.4460  -13.8060 C.3   199  THR199      0.0379
    109  N         36.3480   22.2260  -18.4750 N.am  200  HIS200     -0.1959
    110  CA        37.2330   22.6070  -19.6150 C.3   200  HIS200      0.1772
    111  C         36.3750   22.5840  -20.8840 C.2   200  HIS200      0.2462
    112  O         35.2390   22.0230  -20.8860 O.2   200  HIS200     -0.2730
    113  CB        38.5920   21.8330  -19.7450 C.3   200  HIS200      0.0785
    114  CG        38.4920   20.3600  -19.4400 C.ar  200  HIS200      0.0821
    115  ND1       38.5580   19.3660  -20.4100 N.ar  200  HIS200     -0.2267
    116  CD2       38.2780   19.7240  -18.2610 C.ar  200  HIS200      0.1154
    117  CE1       38.4270   18.1810  -19.8430 C.ar  200  HIS200      0.1986
    118  NE2       38.2700   18.3830  -18.5420 N.ar  200  HIS200     -0.2212
    119  N         36.8830   23.2390  -21.9190 N.am  201  PRO201     -0.2716
    120  CA        36.1200   23.3280  -23.2060 C.3   201  PRO201      0.1521
    121  C         35.6800   21.9510  -23.6520 C.2   201  PRO201      0.2440
    122  O         36.4230   20.9430  -23.5800 O.2   201  PRO201     -0.2731
    123  CB        37.0790   24.0530  -24.1510 C.3   201  PRO201      0.0310
    124  CG        37.8550   24.9490  -23.1630 C.3   201  PRO201      0.0237
    125  CD        38.1580   23.9740  -22.0130 C.3   201  PRO201      0.0939
    126  N         34.4580   21.7930  -24.1520 N.am  202  PRO202     -0.2727
    127  CA        33.4820   22.8410  -24.4310 C.3   202  PRO202      0.1402
    128  C         32.7490   23.5690  -23.3480 C.2   202  PRO202      0.2269
    129  O         31.9620   24.4830  -23.7160 O.2   202  PRO202     -0.2865
    130  CB        32.5250   22.1730  -25.4310 C.3   202  PRO202      0.0296
    131  CG        32.6330   20.7130  -25.1580 C.3   202  PRO202      0.0237
    132  CD        34.0340   20.4700  -24.6200 C.3   202  PRO202      0.0939
    133  N         26.8550   18.0140  -10.1980 N.3   209  TRP209     -0.1241
    134  CA        28.0180   17.6420   -9.3720 C.3   209  TRP209      0.1605
    135  C         27.7140   16.9840   -8.0280 C.2   209  TRP209      0.2264
    136  O         26.7960   17.4140   -7.3180 O.2   209  TRP209     -0.2867
    137  CB        28.9460   18.8620   -9.1350 C.3   209  TRP209      0.0550
    138  CG        29.6960   19.2370  -10.3680 C.ar  209  TRP209      0.0003
    139  CD1       29.3040   20.1320  -11.3330 C.ar  209  TRP209      0.0946
    140  CD2       30.9570   18.6800  -10.7840 C.ar  209  TRP209      0.0152
    141  NE1       30.2740   20.1560  -12.3340 N.ar  209  TRP209     -0.2442
    142  CE2       31.2830   19.2980  -12.0310 C.ar  209  TRP209      0.0810
    143  CE3       31.8120   17.7170  -10.2560 C.ar  209  TRP209      0.0012
    144  CZ2       32.4280   18.9680  -12.7450 C.ar  209  TRP209      0.0191
    145  CZ3       32.9420   17.3870  -10.9640 C.ar  209  TRP209      0.0001
    146  CH2       33.2940   18.0240  -12.1520 C.ar  209  TRP209      0.0015
@<TRIPOS>BOND
     1    68    69    2
     2    68    67    1
     3   130   131    1
     4   130   127    1
     5    66    67    1
     6   131   132    1
     7    67    70    1
     8   132   126    1
     9   127   126    1
    10   127   128    1
    11    70    71    1
    12   126   121   am
    13   123   120    1
    14   123   124    1
    15    78    75    1
    16    73    71    1
    17    71    72    1
    18   129   128    2
    19   121   122    2
    20   121   120    1
    21    74    75    1
    22   120   119    1
    23    75    76    1
    24   124   125    1
    25    76    77    2
    26   125   119    1
    27   119   111   am
    28     7     9   ar
    29     7     6   ar
    30     9    10   ar
    31   100    99    1
    32   112   111    2
    33   111   110    1
    34     6     5    1
    35     6     8   ar
    36    30    28   am
    37    18    20   ar
    38    18    16   ar
    39    10     8   ar
    40     5     2    1
    41   115   117   ar
    42   115   114   ar
    43    20    21   ar
    44    15    16    1
    45    15    12    1
    46     4     3    2
    47    16    17   ar
    48   117   118   ar
    49     1     2    1
    50    14    13    2
    51    99    98    1
    52    99   101    1
    53   113   110    1
    54   113   114    1
    55    86    84    1
    56    21    19   ar
    57   110   109    1
    58     2     3    1
    59   114   116   ar
    60    85    84    1
    61    28    29    2
    62    28    27    1
    63    17    19   ar
    64    98    95    1
    65    12    13    1
    66    12    11    1
    67    84    83    1
    68    13    22   am
    69    26    27    1
    70    26    23    1
    71   118   116   ar
    72   109   104   am
    73    22    23    1
    74    79    80    1
    75    95    94    1
    76    95    96    1
    77    23    24    1
    78    83    80    1
    79    97    96    2
    80   104   105    2
    81   104   103    1
    82    96   102   am
    83    80    81    1
    84   102   103    1
    85    37    39   ar
    86    37    36   ar
    87    39    40   ar
    88    24    25    2
    89   103   106    1
    90    65    62    1
    91    35    36    1
    92    35    32    1
    93    36    38   ar
    94    64    63    2
    95    63    62    1
    96    40    38   ar
    97    81    82    2
    98   107   106    1
    99    49    50   ar
   100    49    47   ar
   101    62    61    1
   102    32    31    1
   103    32    33    1
   104   106   108    1
   105    50    48   ar
   106    47    46   ar
   107    93    91    1
   108    33    34    2
   109    48    46   ar
   110    46    45    1
   111    54    53    2
   112    57    56   ar
   113    57    59   ar
   114    91    92    1
   115    91    88    1
   116   144   146   ar
   117   144   142   ar
   118    55    56    1
   119    55    52    1
   120    87    88    1
   121   141   142   ar
   122   141   139   ar
   123    42    41    1
   124    42    45    1
   125    42    43    1
   126   146   145   ar
   127    88    89    1
   128    56    58   ar
   129    53    52    1
   130    59    60   ar
   131   142   140   ar
   132    52    51    1
   133   139   138   ar
   134    43    44    2
   135   145   143   ar
   136   140   138   ar
   137   140   143   ar
   138    60    58   ar
   139    89    90    2
   140   138   137    1
   141   133   134    1
   142   134   137    1
   143   134   135    1
   144   135   136    2
