@<TRIPOS>MOLECULE
tmp/1bzpA00.pdb
 218 207 0 0 0
SMALL
GASTEIGER

@<TRIPOS>ATOM
      1  N          0.3780    0.7040   22.3550 N.3    29  LEU29      -0.1245
      2  CA         1.5610    1.5130   22.1280 C.3    29  LEU29       0.1561
      3  C          2.8290    0.7960   22.6150 C.2    29  LEU29       0.2260
      4  O          3.8940    0.8250   21.9840 O.2    29  LEU29      -0.2867
      5  CB         1.4000    2.9150   22.7230 C.3    29  LEU29       0.0270
      6  CG         0.4160    3.8230   22.0000 C.3    29  LEU29       0.0019
      7  CD1        0.2710    5.1840   22.7300 C.3    29  LEU29       0.0001
      8  CD2        0.7890    4.0600   20.5400 C.3    29  LEU29       0.0001
      9  N          3.7810   -1.8570   20.1380 N.3    32  LEU32      -0.1245
     10  CA         4.4030   -1.2360   18.9870 C.3    32  LEU32       0.1561
     11  C          5.8710   -0.8750   19.2440 C.2    32  LEU32       0.2260
     12  O          6.7670   -1.1460   18.4500 O.2    32  LEU32      -0.2867
     13  CB         3.5920    0.0030   18.6180 C.3    32  LEU32       0.0270
     14  CG         4.1210    0.8440   17.4720 C.3    32  LEU32       0.0019
     15  CD1        4.0850    0.0820   16.1420 C.3    32  LEU32       0.0001
     16  CD2        3.3660    2.1670   17.3790 C.3    32  LEU32       0.0001
     17  N          9.9300    3.1270   15.8310 N.3    39  THR39      -0.1218
     18  CA         8.7210    3.9320   15.9370 C.3    39  THR39       0.1862
     19  C          8.7610    4.8880   17.1180 C.2    39  THR39       0.2287
     20  O          8.1530    5.9540   17.0670 O.2    39  THR39      -0.2866
     21  CB         7.4360    3.0720   16.0190 C.3    39  THR39       0.1770
     22  OG1        7.4330    2.2380   17.1880 O.3    39  THR39      -0.2211
     23  CG2        7.1940    2.1690   14.8090 C.3    39  THR39       0.0375
     24  N          9.9120    8.6890   16.5690 N.3    42  LYS42      -0.1231
     25  CA         9.0180    9.6960   15.9810 C.3    42  LYS42       0.1693
     26  C          8.3620   10.5230   17.0980 C.2    42  LYS42       0.2592
     27  O          7.7070   11.5120   16.7920 O.2    42  LYS42      -0.2718
     28  CB         7.9310    9.0540   15.1390 C.3    42  LYS42       0.0285
     29  CG         8.3460    8.4730   13.8090 C.3    42  LYS42       0.0035
     30  CD         8.9070    9.4700   12.8130 C.3    42  LYS42       0.0206
     31  CE         9.3860    8.8130   11.5390 C.3    42  LYS42       0.1093
     32  NZ         9.7150    9.9170   10.5840 N.3    42  LYS42      -0.1314
     33  N          8.4960   10.0910   18.3600 N.am   43  PHE43      -0.1976
     34  CA         7.8270   10.7980   19.4500 C.3    43  PHE43       0.1639
     35  C          8.8460   11.5120   20.3210 C.2    43  PHE43       0.2290
     36  O          9.4460   10.8750   21.2180 O.2    43  PHE43      -0.2864
     37  CB         7.0680    9.8410   20.3520 C.3    43  PHE43       0.0560
     38  CG         5.8550    9.1860   19.6810 C.ar   43  PHE43      -0.0200
     39  CD1        4.6070    9.8200   19.7650 C.ar   43  PHE43      -0.0042
     40  CD2        5.9630    7.9940   19.0050 C.ar   43  PHE43      -0.0042
     41  CE1        3.4720    9.2160   19.2140 C.ar   43  PHE43      -0.0003
     42  CE2        4.8670    7.3960   18.4490 C.ar   43  PHE43      -0.0003
     43  CZ         3.6380    8.0170   18.5360 C.ar   43  PHE43      -0.0000
     44  N          8.1370   13.2580   22.6970 N.3    45  ARG45      -0.1245
     45  CA         7.4370   13.1170   23.9550 C.3    45  ARG45       0.1563
     46  C          7.8620   11.8680   24.7260 C.2    45  ARG45       0.2260
     47  O          7.7470   11.8240   25.9410 O.2    45  ARG45      -0.2867
     48  CB         5.9320   12.8800   23.6650 C.3    45  ARG45       0.0307
     49  CG         5.0020   14.0350   23.8470 C.3    45  ARG45       0.0489
     50  CD         3.5830   13.7290   23.4300 C.3    45  ARG45       0.2205
     51  NE         2.6100   13.5940   24.5170 N.pl3  45  ARG45      -0.0865
     52  CZ         1.2830   13.6170   24.2790 C.cat  45  ARG45       0.5346
     53  NH1        0.8510   13.7840   23.0310 N.pl3  45  ARG45       0.1354
     54  NH2        0.4020   13.4830   25.2610 N.pl3  45  ARG45       0.1354
     55  N         -1.8980    9.6150   25.3330 N.3    64  HIS64      -0.1241
     56  CA        -1.7970    9.4940   23.8740 C.3    64  HIS64       0.1621
     57  C         -2.4840    8.2430   23.3600 C.2    64  HIS64       0.2264
     58  O         -3.1130    8.2670   22.2930 O.2    64  HIS64      -0.2867
     59  CB        -0.3470    9.4860   23.3750 C.3    64  HIS64       0.0745
     60  CG        -0.2340    9.3720   21.8720 C.ar   64  HIS64       0.0817
     61  ND1       -0.5040   10.4030   20.9970 N.ar   64  HIS64      -0.2268
     62  CD2        0.1270    8.3260   21.0880 C.ar   64  HIS64       0.1154
     63  CE1       -0.3310    9.9940   19.7520 C.ar   64  HIS64       0.1986
     64  NE2        0.0710    8.7230   19.7690 N.ar   64  HIS64      -0.2212
     65  N         -6.0480    9.2250   22.9020 N.3    67  THR67      -0.1203
     66  CA        -6.2240   10.0280   21.6860 C.3    67  THR67       0.1994
     67  C         -6.2540    9.1310   20.4560 C.2    67  THR67       0.2617
     68  O         -7.1260    9.3450   19.5950 O.2    67  THR67      -0.2717
     69  CB        -5.0520   11.0190   21.6170 C.3    67  THR67       0.1784
     70  OG1       -5.1790   11.9230   22.7050 O.3    67  THR67      -0.2211
     71  CG2       -5.0710   11.8070   20.2980 C.3    67  THR67       0.0376
     72  N         -5.3260    8.2210   20.3390 N.am   68  VAL68      -0.1979
     73  CA        -5.2770    7.3560   19.1630 C.3    68  VAL68       0.1595
     74  C         -6.5150    6.4820   19.0450 C.2    68  VAL68       0.2287
     75  O         -7.1410    6.4040   17.9730 O.2    68  VAL68      -0.2864
     76  CB        -3.9950    6.5040   19.2140 C.3    68  VAL68       0.0276
     77  CG1       -3.9490    5.4190   18.1400 C.3    68  VAL68       0.0022
     78  CG2       -2.7190    7.3470   19.0810 C.3    68  VAL68       0.0022
     79  N         -9.8250    8.3980   18.1500 N.3    71  ALA71      -0.1231
     80  CA        -9.8810    8.7790   16.7240 C.3    71  ALA71       0.1694
     81  C        -10.1800    7.5440   15.8710 C.2    71  ALA71       0.2591
     82  O        -11.0030    7.6310   14.9460 O.2    71  ALA71      -0.2718
     83  CB        -8.6110    9.4450   16.3160 C.3    71  ALA71       0.0304
     84  N         -9.5490    6.4090   16.1700 N.am   72  LEU72      -0.1980
     85  CA        -9.8130    5.2030   15.4070 C.3    72  LEU72       0.1596
     86  C        -11.2480    4.7370   15.5470 C.2    72  LEU72       0.2287
     87  O        -11.8860    4.3240   14.5760 O.2    72  LEU72      -0.2864
     88  CB        -8.8320    4.0970   15.7640 C.3    72  LEU72       0.0297
     89  CG        -8.9070    2.7960   14.9710 C.3    72  LEU72       0.0022
     90  CD1       -8.6720    3.0380   13.4710 C.3    72  LEU72       0.0001
     91  CD2       -7.9160    1.7590   15.4700 C.3    72  LEU72       0.0001
     92  N        -13.6220    6.6340   13.3690 N.3    75  ILE75      -0.1245
     93  CA       -13.4580    6.1800   11.9670 C.3    75  ILE75       0.1561
     94  C        -14.2200    4.8680   11.7840 C.2    75  ILE75       0.2260
     95  O        -15.0050    4.7130   10.8270 O.2    75  ILE75      -0.2867
     96  CB       -11.9890    6.1050   11.5670 C.3    75  ILE75       0.0252
     97  CG1      -11.3610    7.4910   11.4160 C.3    75  ILE75       0.0019
     98  CG2      -11.7430    5.2610   10.3120 C.3    75  ILE75       0.0019
     99  CD1       -9.8540    7.4580   11.4780 C.3    75  ILE75       0.0001
    100  N         -8.1370   14.8380    7.5950 N.2    88  PRO88      -0.2571
    101  CA        -7.2220   15.6120    8.4760 C.3    88  PRO88       0.2026
    102  C         -6.0840   14.8070    9.1220 C.2    88  PRO88       0.2683
    103  O         -4.9520   15.3020    9.3190 O.2    88  PRO88      -0.2709
    104  CB        -8.1490   16.2190    9.5230 C.2    88  PRO88       0.0085
    105  CG        -9.5110   15.9030    9.1200 C.2    88  PRO88       0.0180
    106  CD        -9.5430   14.9540    8.0050 C.2    88  PRO88       0.0938
    107  N         -6.3690   13.5670    9.4690 N.am   89  LEU89      -0.1973
    108  CA        -5.3690   12.6640   10.0440 C.3    89  LEU89       0.1596
    109  C         -4.2470   12.3490    9.0590 C.2    89  LEU89       0.2287
    110  O         -3.0340   12.3760    9.3570 O.2    89  LEU89      -0.2864
    111  CB        -6.0890   11.3940   10.5150 C.3    89  LEU89       0.0297
    112  CG        -5.2630   10.3010   11.1740 C.3    89  LEU89       0.0022
    113  CD1       -4.9620   10.7750   12.5830 C.3    89  LEU89       0.0001
    114  CD2       -6.0050    8.9730   11.2120 C.3    89  LEU89       0.0001
    115  N         -1.9950   15.4700    8.6710 N.3    92  SER92      -0.1202
    116  CA        -1.0130   15.7510    9.7260 C.3    92  SER92       0.2020
    117  C          0.0430   14.6620    9.7610 C.2    92  SER92       0.2618
    118  O          1.1880   14.9690   10.0690 O.2    92  SER92      -0.2717
    119  CB        -1.6110   15.8450   11.1300 C.3    92  SER92       0.2103
    120  OG        -2.1680   14.6250   11.5150 O.3    92  SER92      -0.2182
    121  N         -0.3170   13.4050    9.5190 N.am   93  HIS93      -0.1975
    122  CA         0.6650   12.3180    9.6160 C.3    93  HIS93       0.1656
    123  C          1.6480   12.3650    8.4660 C.2    93  HIS93       0.2291
    124  O          2.8110   11.9760    8.6430 O.2    93  HIS93      -0.2864
    125  CB        -0.0430   10.9660    9.7920 C.3    93  HIS93       0.0771
    126  CG        -0.5440   10.8110   11.1980 C.ar   93  HIS93       0.0820
    127  ND1       -1.5190   11.6170   11.7280 N.ar   93  HIS93      -0.2267
    128  CD2       -0.2130   10.0010   12.2170 C.ar   93  HIS93       0.1154
    129  CE1       -1.7310   11.2670   13.0110 C.ar   93  HIS93       0.1986
    130  NE2       -0.9580   10.3110   13.3430 N.ar   93  HIS93      -0.2212
    131  N          3.3270   16.7030    8.9520 N.3    96  LYS96      -0.1231
    132  CA         3.8610   17.2210   10.2360 C.3    96  LYS96       0.1693
    133  C          4.6220   16.1170   10.9570 C.2    96  LYS96       0.2592
    134  O          5.8000   16.2810   11.3230 O.2    96  LYS96      -0.2718
    135  CB         2.7570   17.8220   11.0740 C.3    96  LYS96       0.0285
    136  CG         3.0750   18.3550   12.4630 C.3    96  LYS96       0.0035
    137  CD         1.8880   19.1300   13.0480 C.3    96  LYS96       0.0206
    138  CE         2.1620   20.6300   13.0190 C.3    96  LYS96       0.1093
    139  NZ         3.2000   21.0600   14.0010 N.3    96  LYS96      -0.1314
    140  N          3.9630   15.0040   11.2060 N.am   97  HIS97      -0.1976
    141  CA         4.5500   13.9260   11.9960 C.3    97  HIS97       0.1656
    142  C          5.4980   13.0140   11.2170 C.2    97  HIS97       0.2291
    143  O          6.3760   12.3480   11.8000 O.2    97  HIS97      -0.2864
    144  CB         3.4710   13.0900   12.6950 C.3    97  HIS97       0.0771
    145  CG         2.4540   13.8930   13.4450 C.ar   97  HIS97       0.0820
    146  ND1        2.7780   14.9100   14.2940 N.ar   97  HIS97      -0.2267
    147  CD2        1.1050   13.8120   13.4220 C.ar   97  HIS97       0.1154
    148  CE1        1.6560   15.4060   14.7820 C.ar   97  HIS97       0.1986
    149  NE2        0.6030   14.7640   14.2810 N.ar   97  HIS97      -0.2212
    150  N          4.9770   10.1120    9.2910 N.3    99  ILE99      -0.1245
    151  CA         4.7870    8.6710    9.6390 C.3    99  ILE99       0.1561
    152  C          4.6620    7.8180    8.3840 C.2    99  ILE99       0.2260
    153  O          3.6420    7.9540    7.6660 O.2    99  ILE99      -0.2867
    154  CB         3.5570    8.5070   10.5370 C.3    99  ILE99       0.0252
    155  CG1        3.6210    9.4100   11.7830 C.3    99  ILE99       0.0019
    156  CG2        3.3440    7.0450   10.9240 C.3    99  ILE99       0.0019
    157  CD1        4.8860    9.3060   12.5860 C.3    99  ILE99       0.0001
    158  N          4.5730    2.0990    9.1610 N.3   103  TYR103     -0.1227
    159  CA         4.3670    2.1640   10.6210 C.3   103  TYR103      0.1736
    160  C          2.8720    2.0280   10.9130 C.2   103  TYR103      0.2595
    161  O          2.5180    1.5630   12.0200 O.2   103  TYR103     -0.2718
    162  CB         4.8770    3.4830   11.1450 C.3   103  TYR103      0.0548
    163  CG         6.3710    3.7070   11.2050 C.ar  103  TYR103     -0.0200
    164  CD1        7.2940    2.8650   10.6290 C.ar  103  TYR103     -0.0009
    165  CD2        6.8980    4.8000   11.8980 C.ar  103  TYR103     -0.0009
    166  CE1        8.6590    3.0930   10.7130 C.ar  103  TYR103      0.0417
    167  CE2        8.2490    5.0230   11.9610 C.ar  103  TYR103      0.0417
    168  CZ         9.1770    4.1880   11.3760 C.ar  103  TYR103      0.1957
    169  OH        10.5380    4.4040   11.4450 O.3   103  TYR103     -0.2866
    170  N          1.9690    2.3890   10.0210 N.am  104  LEU104     -0.1980
    171  CA         0.5460    2.1400   10.1710 C.3   104  LEU104      0.1596
    172  C          0.2400    0.6320   10.0870 C.2   104  LEU104      0.2287
    173  O         -0.6640    0.1400   10.7720 O.2   104  LEU104     -0.2864
    174  CB        -0.2830    2.9610    9.1990 C.3   104  LEU104      0.0297
    175  CG        -0.1670    4.4750    9.3150 C.3   104  LEU104      0.0022
    176  CD1       -0.9670    5.1360    8.1990 C.3   104  LEU104      0.0001
    177  CD2       -0.6640    4.9370   10.6700 C.3   104  LEU104      0.0001
    178  N          1.2800   -0.7220   13.6480 N.3   107  ILE107     -0.1231
    179  CA         0.3190   -0.4720   14.6860 C.3   107  ILE107      0.1692
    180  C         -0.9330   -1.3150   14.4720 C.2   107  ILE107      0.2592
    181  O         -1.6010   -1.7710   15.4550 O.2   107  ILE107     -0.2718
    182  CB        -0.0380    1.0250   14.9240 C.3   107  ILE107      0.0266
    183  CG1       -0.5870    1.1960   16.3590 C.3   107  ILE107      0.0019
    184  CG2       -0.9760    1.5860   13.8770 C.3   107  ILE107      0.0020
    185  CD1       -0.7840    2.6610   16.7590 C.3   107  ILE107      0.0001
    186  N         -1.3220   -1.6000   13.2360 N.am  108  SER108     -0.1952
    187  CA        -2.4560   -2.4770   12.9500 C.3   108  SER108      0.1924
    188  C         -2.2030   -3.8960   13.5140 C.2   108  SER108      0.2314
    189  O         -3.1000   -4.4970   14.1240 O.2   108  SER108     -0.2863
    190  CB        -2.7240   -2.5620   11.4470 C.3   108  SER108      0.2116
    191  OG        -3.1710   -1.3020   10.9480 O.3   108  SER108     -0.2180
    192  N         -2.6400   -3.7560   17.2880 N.3   111  ILE111     -0.1245
    193  CA        -4.0690   -3.7390   17.6640 C.3   111  ILE111      0.1561
    194  C         -4.6530   -5.1520   17.6260 C.2   111  ILE111      0.2260
    195  O         -5.3400   -5.5740   18.5980 O.2   111  ILE111     -0.2867
    196  CB        -4.8600   -2.7660   16.7640 C.3   111  ILE111      0.0252
    197  CG1       -4.4530   -1.3150   16.9910 C.3   111  ILE111      0.0019
    198  CG2       -6.3690   -2.9880   16.9420 C.3   111  ILE111      0.0019
    199  CD1       -4.8840   -0.3720   15.8820 C.3   111  ILE111      0.0001
    200  N         -8.8760   -2.4680    9.0540 N.3   135  LEU135     -0.1245
    201  CA        -7.6240   -1.7440    9.1970 C.3   135  LEU135      0.1561
    202  C         -6.9010   -1.6280    7.8620 C.2   135  LEU135      0.2260
    203  O         -6.1920   -0.6260    7.6150 O.2   135  LEU135     -0.2867
    204  CB        -6.7390   -2.3900   10.2790 C.3   135  LEU135      0.0270
    205  CG        -7.3230   -2.3100   11.6770 C.3   135  LEU135      0.0019
    206  CD1       -6.5190   -3.1190   12.6520 C.3   135  LEU135      0.0001
    207  CD2       -7.4580   -0.8630   12.1210 C.3   135  LEU135      0.0001
    208  N         -8.5720    1.3920    6.2070 N.3   138  PHE138     -0.1241
    209  CA        -7.9890    2.5860    6.7970 C.3   138  PHE138      0.1605
    210  C         -6.6660    2.9220    6.1320 C.2   138  PHE138      0.2264
    211  O         -6.4040    4.0570    5.7230 O.2   138  PHE138     -0.2867
    212  CB        -7.8630    2.3120    8.2930 C.3   138  PHE138      0.0534
    213  CG        -7.0560    3.3060    9.1120 C.ar  138  PHE138     -0.0203
    214  CD1       -7.5560    4.5320    9.4450 C.ar  138  PHE138     -0.0042
    215  CD2       -5.7980    2.9520    9.5540 C.ar  138  PHE138     -0.0042
    216  CE1       -6.8360    5.4140   10.2380 C.ar  138  PHE138     -0.0003
    217  CE2       -5.0620    3.8220   10.3680 C.ar  138  PHE138     -0.0003
    218  CZ        -5.6030    5.0510   10.6970 C.ar  138  PHE138     -0.0000
@<TRIPOS>BOND
     1   211   210    2
     2   210   209    1
     3   208   209    1
     4   209   212    1
     5   100   106    2
     6   100   101    1
     7   203   202    2
     8   153   152    2
     9   202   201    1
    10   106   105    1
    11   176   175    1
    12   212   213    1
    13   152   151    1
    14   123   124    2
    15   123   122    1
    16   101   102    1
    17   101   104    1
    18   115   116    1
    19   131   132    1
    20   200   201    1
    21   109   110    2
    22   109   108    1
    23   213   214   ar
    24   213   215   ar
    25   105   104    2
    26   102   103    2
    27   102   107   am
    28   158   159    1
    29   201   204    1
    30   174   175    1
    31   174   171    1
    32   150   151    1
    33   175   177    1
    34   214   216   ar
    35   107   108    1
    36   121   122    1
    37   121   117   am
    38   215   217   ar
    39   122   125    1
    40   151   154    1
    41   116   117    1
    42   116   119    1
    43   117   118    2
    44   125   126    1
    45   170   171    1
    46   170   160   am
    47   108   111    1
    48   172   171    1
    49   172   173    2
    50   132   133    1
    51   132   135    1
    52   216   218   ar
    53   204   205    1
    54    98    96    1
    55   217   218   ar
    56   111   112    1
    57   154   156    1
    58   154   155    1
    59    32    31    1
    60   159   160    1
    61   159   162    1
    62   164   166   ar
    63   164   163   ar
    64   166   168   ar
    65    95    94    2
    66   160   161    2
    67   191   190    1
    68   133   140   am
    69   133   134    2
    70   135   136    1
    71   119   120    1
    72   162   163    1
    73   112   114    1
    74   112   113    1
    75   126   127   ar
    76   126   128   ar
    77   163   165   ar
    78   140   141    1
    79   142   143    2
    80   142   141    1
    81   168   169    1
    82   168   167   ar
    83    97    99    1
    84    97    96    1
    85   190   187    1
    86    31    30    1
    87    96    93    1
    88   205   207    1
    89   205   206    1
    90   127   129   ar
    91   155   157    1
    92    94    93    1
    93   165   167   ar
    94    93    92    1
    95   141   144    1
    96   128   130   ar
    97   136   137    1
    98   144   145    1
    99    30    29    1
   100   187   186    1
   101   187   188    1
   102   129   130   ar
   103   138   137    1
   104   138   139    1
   105   186   180   am
   106   147   145   ar
   107   147   149   ar
   108   145   146   ar
   109    90    89    1
   110   188   189    2
   111   178   179    1
   112    29    28    1
   113   184   182    1
   114   149   148   ar
   115   146   148   ar
   116   180   179    1
   117   180   181    2
   118    87    86    2
   119   179   182    1
   120    23    21    1
   121   182   183    1
   122    82    81    2
   123    89    91    1
   124    89    88    1
   125    28    25    1
   126    85    86    1
   127    85    88    1
   128    85    84    1
   129    17    18    1
   130    81    84   am
   131    81    80    1
   132   199   197    1
   133    18    21    1
   134    18    19    1
   135    25    24    1
   136    25    26    1
   137    21    22    1
   138    15    14    1
   139    83    80    1
   140   183   185    1
   141    80    79    1
   142   196   198    1
   143   196   197    1
   144   196   193    1
   145    27    26    2
   146    20    19    2
   147    26    33   am
   148   192   193    1
   149    16    14    1
   150    14    13    1
   151   194   193    1
   152   194   195    2
   153    75    74    2
   154    77    76    1
   155    33    34    1
   156    42    43   ar
   157    42    40   ar
   158    12    11    2
   159    43    41   ar
   160    13    10    1
   161    10    11    1
   162    10     9    1
   163    40    38   ar
   164    74    73    1
   165    78    76    1
   166    73    76    1
   167    73    72    1
   168    41    39   ar
   169    34    35    1
   170    34    37    1
   171    68    67    2
   172    38    39   ar
   173    38    37    1
   174    63    64   ar
   175    63    61   ar
   176    64    62   ar
   177    71    69    1
   178    35    36    2
   179    72    67   am
   180    67    66    1
   181     8     6    1
   182    61    60   ar
   183    62    60   ar
   184    69    66    1
   185    69    70    1
   186    66    65    1
   187    60    59    1
   188     4     3    2
   189     6     5    1
   190     6     7    1
   191     2     1    1
   192     2     3    1
   193     2     5    1
   194    58    57    2
   195    44    45    1
   196    53    52    1
   197    57    56    1
   198    59    56    1
   199    50    49    1
   200    50    51    1
   201    48    49    1
   202    48    45    1
   203    56    55    1
   204    45    46    1
   205    52    51    2
   206    52    54    1
   207    46    47    2
