@<TRIPOS>MOLECULE
tmp/1bzsA01.pdb
 98 93 0 0 0
SMALL
GASTEIGER

@<TRIPOS>ATOM
      1  N          9.3660   63.5820   35.8700 N.3    29  ALA29      -0.1231
      2  CA         8.8370   62.2310   36.0050 C.3    29  ALA29       0.1694
      3  C          9.9630   61.2400   36.3410 C.2    29  ALA29       0.2591
      4  O          9.7740   60.3570   37.1790 O.2    29  ALA29      -0.2718
      5  CB         8.1120   61.8200   34.7410 C.3    29  ALA29       0.0304
      6  N         11.1380   61.4200   35.7310 N.am   30  GLU30      -0.1979
      7  CA        12.2860   60.5410   35.9950 C.3    30  GLU30       0.1602
      8  C         12.7660   60.6830   37.4380 C.2    30  GLU30       0.2287
      9  O         13.1160   59.6840   38.0810 O.2    30  GLU30      -0.2864
     10  CB        13.4290   60.7870   34.9980 C.3    30  GLU30       0.0415
     11  CG        13.1200   60.2490   33.6000 C.3    30  GLU30       0.1163
     12  CD        13.9850   60.8260   32.4930 C.2    30  GLU30       0.3649
     13  OE1       14.6390   61.8580   32.6950 O.co2  30  GLU30      -0.2457
     14  OE2       13.9960   60.2440   31.3910 O.co2  30  GLU30      -0.2457
     15  N         10.0140   59.0390   39.6250 N.3    33  ARG33      -0.1231
     16  CA        10.0760   57.5780   39.5220 C.3    33  ARG33       0.1694
     17  C         11.2860   57.0040   40.2790 C.2    33  ARG33       0.2591
     18  O         11.1550   55.9990   40.9870 O.2    33  ARG33      -0.2718
     19  CB        10.0770   57.1490   38.0580 C.3    33  ARG33       0.0321
     20  CG        10.2770   55.6440   37.8170 C.3    33  ARG33       0.0489
     21  CD         9.3020   54.7870   38.6100 C.3    33  ARG33       0.2205
     22  NE         7.9230   54.8680   38.1290 N.pl3  33  ARG33      -0.0865
     23  CZ         6.9510   54.0530   38.5330 C.cat  33  ARG33       0.5346
     24  NH1        7.2190   53.1050   39.4210 N.pl3  33  ARG33       0.1354
     25  NH2        5.7140   54.1900   38.0590 N.pl3  33  ARG33       0.1354
     26  N         12.4470   57.6570   40.1700 N.am   34  ALA34      -0.1980
     27  CA        13.6450   57.1840   40.8850 C.3    34  ALA34       0.1597
     28  C         13.4110   57.1780   42.3850 C.2    34  ALA34       0.2287
     29  O         13.7870   56.2220   43.0740 O.2    34  ALA34      -0.2864
     30  CB        14.8700   58.0380   40.5510 C.3    34  ALA34       0.0319
     31  N         10.6240   54.3750   43.3580 N.3    37  ASP37      -0.1239
     32  CA        11.2070   53.0310   43.3130 C.3    37  ASP37       0.1674
     33  C         12.2410   52.7990   44.4110 C.2    37  ASP37       0.2266
     34  O         12.3680   51.6670   44.9170 O.2    37  ASP37      -0.2867
     35  CB        11.7970   52.7580   41.9260 C.3    37  ASP37       0.1410
     36  CG        10.7170   52.6060   40.8400 C.2    37  ASP37       0.3668
     37  OD1        9.5080   52.7260   41.1380 O.co2  37  ASP37      -0.2456
     38  OD2       11.0910   52.3600   39.6840 O.co2  37  ASP37      -0.2456
     39  N         11.9060   49.8120   47.4130 N.3    41  LEU41      -0.1245
     40  CA        12.9080   48.7950   47.7660 C.3    41  LEU41       0.1561
     41  C         12.8340   48.4270   49.2390 C.2    41  LEU41       0.2260
     42  O         12.9230   47.2510   49.6080 O.2    41  LEU41      -0.2867
     43  CB        14.3290   49.3210   47.5280 C.3    41  LEU41       0.0270
     44  CG        14.8670   49.4530   46.1240 C.3    41  LEU41       0.0019
     45  CD1       16.2930   49.9920   46.2500 C.3    41  LEU41       0.0001
     46  CD2       14.8460   48.1100   45.3910 C.3    41  LEU41       0.0001
     47  N         19.7420   58.0920   34.9890 N.3   106  ASN106     -0.1240
     48  CA        18.8850   56.9190   35.1590 C.3   106  ASN106      0.1653
     49  C         19.5790   55.8380   34.3080 C.2   106  ASN106      0.2266
     50  O         18.9410   54.9220   33.7950 O.2   106  ASN106     -0.2867
     51  CB        17.4200   57.1820   34.7150 C.3   106  ASN106      0.1155
     52  CG        17.2730   57.4830   33.2180 C.2   106  ASN106      0.2627
     53  OD1       18.2520   57.6880   32.4920 O.2   106  ASN106     -0.2716
     54  ND2       16.0250   57.5360   32.7590 N.am  106  ASN106     -0.0877
     55  N         18.3690   56.8760   41.2700 N.3   114  PHE114     -0.1241
     56  CA        17.6330   55.8100   41.9370 C.3   114  PHE114      0.1605
     57  C         18.5080   55.1210   42.9940 C.2   114  PHE114      0.2264
     58  O         18.0990   54.9790   44.1570 O.2   114  PHE114     -0.2867
     59  CB        17.1560   54.7890   40.8840 C.3   114  PHE114      0.0534
     60  CG        16.7410   53.4630   41.4670 C.ar  114  PHE114     -0.0203
     61  CD1       15.6290   53.3640   42.3020 C.ar  114  PHE114     -0.0042
     62  CD2       17.4880   52.3180   41.1950 C.ar  114  PHE114     -0.0042
     63  CE1       15.2570   52.1390   42.8580 C.ar  114  PHE114     -0.0003
     64  CE2       17.1310   51.0830   41.7440 C.ar  114  PHE114     -0.0003
     65  CZ        16.0150   50.9950   42.5800 C.ar  114  PHE114     -0.0000
     66  N         19.6180   48.2800   37.5130 N.3   146  THR146     -0.1203
     67  CA        18.4810   48.8580   38.2060 C.3   146  THR146      0.1994
     68  C         17.0980   48.4160   37.7350 C.2   146  THR146      0.2619
     69  O         16.1100   48.6040   38.4550 O.2   146  THR146     -0.2717
     70  CB        18.5300   50.4100   38.0740 C.3   146  THR146      0.1784
     71  OG1       18.5170   50.7560   36.6770 O.3   146  THR146     -0.2211
     72  CG2       19.8040   50.9720   38.7180 C.3   146  THR146      0.0376
     73  N         17.0180   47.8670   36.5270 N.am  147  SER147     -0.1937
     74  CA        15.7310   47.4690   35.9530 C.3   147  SER147      0.2055
     75  C         14.8240   46.5960   36.8180 C.2   147  SER147      0.2643
     76  O         13.5930   46.7120   36.7510 O.2   147  SER147     -0.2714
     77  CB        15.9360   46.8140   34.5820 C.3   147  SER147      0.2130
     78  OG        16.6510   45.5900   34.6800 O.3   147  SER147     -0.2179
     79  N         15.4300   45.6960   37.5870 N.am  148  ASN148     -0.1957
     80  CA        14.6850   44.7920   38.4600 C.3   148  ASN148      0.1819
     81  C         15.4780   44.6630   39.7520 C.2   148  ASN148      0.2621
     82  O         15.5830   43.5710   40.3250 O.2   148  ASN148     -0.2715
     83  CB        14.5520   43.3870   37.8270 C.3   148  ASN148      0.1195
     84  CG        13.7290   43.3750   36.5360 C.2   148  ASN148      0.2630
     85  OD1       12.5250   43.1060   36.5490 O.2   148  ASN148     -0.2716
     86  ND2       14.3870   43.6280   35.4160 N.am  148  ASN148     -0.0877
     87  N         16.0330   45.7780   40.2150 N.am  149  TYR149     -0.1974
     88  CA        16.8450   45.7750   41.4280 C.3   149  TYR149      0.1639
     89  C         16.0460   45.4390   42.6800 C.2   149  TYR149      0.2290
     90  O         14.8560   45.7660   42.7840 O.2   149  TYR149     -0.2864
     91  CB        17.5250   47.1430   41.5930 C.3   149  TYR149      0.0560
     92  CG        18.5870   47.2360   42.6820 C.ar  149  TYR149     -0.0198
     93  CD1       19.9040   46.8330   42.4490 C.ar  149  TYR149     -0.0009
     94  CD2       18.2760   47.7470   43.9390 C.ar  149  TYR149     -0.0009
     95  CE1       20.8760   46.9390   43.4520 C.ar  149  TYR149      0.0417
     96  CE2       19.2390   47.8550   44.9450 C.ar  149  TYR149      0.0417
     97  CZ        20.5270   47.4500   44.6990 C.ar  149  TYR149      0.1957
     98  OH        21.4510   47.5460   45.7090 O.3   149  TYR149     -0.2866
@<TRIPOS>BOND
     1    14    12   ar
     2    53    52    2
     3    12    13   ar
     4    12    11    1
     5    54    52   am
     6    52    51    1
     7    11    10    1
     8    50    49    2
     9    49    48    1
    10    77    78    1
    11    77    74    1
    12    51    48    1
    13     5     2    1
    14    47    48    1
    15    10     7    1
    16    86    84   am
    17     6     7    1
    18     6     3   am
    19     1     2    1
    20    74    73    1
    21    74    75    1
    22     7     8    1
    23     2     3    1
    24     3     4    2
    25    73    68   am
    26    84    85    2
    27    84    83    1
    28    71    70    1
    29    76    75    2
    30    75    79   am
    31     8     9    2
    32    66    67    1
    33    79    80    1
    34    68    67    1
    35    68    69    2
    36    20    19    1
    37    20    21    1
    38    83    80    1
    39    19    16    1
    40    25    23    1
    41    70    67    1
    42    70    72    1
    43    22    23    2
    44    22    21    1
    45    80    81    1
    46    23    24    1
    47    16    15    1
    48    16    17    1
    49    38    36   ar
    50    81    87   am
    51    81    82    2
    52    26    17   am
    53    26    27    1
    54    87    88    1
    55    17    18    2
    56    30    27    1
    57    36    37   ar
    58    36    35    1
    59    59    60    1
    60    59    56    1
    61    27    28    1
    62    62    60   ar
    63    62    64   ar
    64    55    56    1
    65    88    91    1
    66    88    89    1
    67    60    61   ar
    68    91    92    1
    69    64    65   ar
    70    35    32    1
    71    56    57    1
    72    61    63   ar
    73    28    29    2
    74    93    92   ar
    75    93    95   ar
    76    65    63   ar
    77    89    90    2
    78    92    94   ar
    79    57    58    2
    80    32    31    1
    81    32    33    1
    82    95    97   ar
    83    94    96   ar
    84    33    34    2
    85    97    96   ar
    86    97    98    1
    87    46    44    1
    88    44    45    1
    89    44    43    1
    90    39    40    1
    91    43    40    1
    92    40    41    1
    93    41    42    2
