@<TRIPOS>MOLECULE
tmp/1bzsA00.pdb
 157 156 0 0 0
SMALL
GASTEIGER

@<TRIPOS>ATOM
      1  N         32.8680   63.7390   44.7870 N.3    80  GLY80      -0.1210
      2  CA        33.0100   63.7960   46.2320 C.3    80  GLY80       0.1956
      3  C         31.6900   63.3830   46.8670 C.2    80  GLY80       0.2612
      4  O         31.0710   62.4290   46.4170 O.2    80  GLY80      -0.2717
      5  N         31.2260   64.1240   47.8690 N.am   81  ILE81      -0.1965
      6  CA        29.9480   63.8000   48.5100 C.3    81  ILE81       0.1727
      7  C         28.8060   63.9990   47.4950 C.2    81  ILE81       0.2616
      8  O         28.7170   65.0390   46.8210 O.2    81  ILE81      -0.2715
      9  CB        29.7180   64.6480   49.7970 C.3    81  ILE81       0.0290
     10  CG1       30.8420   64.3920   50.8190 C.3    81  ILE81       0.0022
     11  CG2       28.3150   64.3720   50.3970 C.3    81  ILE81       0.0023
     12  CD1       31.0590   62.9230   51.2060 C.3    81  ILE81       0.0001
     13  N         27.9540   62.9870   47.3590 N.am   82  LEU82      -0.1963
     14  CA        26.8570   63.0320   46.4030 C.3    82  LEU82       0.1728
     15  C         25.5250   63.4380   47.0190 C.2    82  LEU82       0.2616
     16  O         24.6830   64.0300   46.3450 O.2    82  LEU82      -0.2715
     17  CB        26.6700   61.6460   45.7840 C.3    82  LEU82       0.0311
     18  CG        27.9360   60.9740   45.2740 C.3    82  LEU82       0.0022
     19  CD1       27.6220   59.5340   44.8540 C.3    82  LEU82       0.0001
     20  CD2       28.4760   61.8170   44.1160 C.3    82  LEU82       0.0001
     21  N         25.3350   63.0550   48.2750 N.am   83  ALA83      -0.1963
     22  CA        24.0920   63.3140   48.9820 C.3    83  ALA83       0.1728
     23  C         24.2750   62.9650   50.4440 C.2    83  ALA83       0.2616
     24  O         25.3330   62.4700   50.8460 O.2    83  ALA83      -0.2715
     25  CB        22.9810   62.4220   48.3780 C.3    83  ALA83       0.0334
     26  N         23.2700   63.3090   51.2490 N.am   84  HIS84      -0.1973
     27  CA        23.2370   62.9670   52.6630 C.3    84  HIS84       0.1656
     28  C         21.8130   62.9740   53.1970 C.2    84  HIS84       0.2291
     29  O         20.9150   63.5780   52.5920 O.2    84  HIS84      -0.2864
     30  CB        24.1920   63.8030   53.5480 C.3    84  HIS84       0.0771
     31  CG        23.9890   65.2830   53.4810 C.ar   84  HIS84       0.0820
     32  ND1       25.0430   66.1440   53.2720 N.ar   84  HIS84      -0.2267
     33  CD2       22.9140   66.0680   53.7310 C.ar   84  HIS84       0.1154
     34  CE1       24.6400   67.3890   53.4030 C.ar   84  HIS84       0.1986
     35  NE2       23.3500   67.3770   53.7020 N.ar   84  HIS84      -0.2212
     36  N         19.7140   54.7050   42.5950 N.3   115  LEU115     -0.1231
     37  CA        20.6470   54.0330   43.5080 C.3   115  LEU115      0.1693
     38  C         21.1000   54.9220   44.6750 C.2   115  LEU115      0.2591
     39  O         21.1060   54.4780   45.8300 O.2   115  LEU115     -0.2718
     40  CB        21.8770   53.4890   42.7450 C.3   115  LEU115      0.0284
     41  CG        21.6330   52.3280   41.7740 C.3   115  LEU115      0.0019
     42  CD1       22.9320   51.9910   41.0620 C.3   115  LEU115      0.0001
     43  CD2       21.1060   51.1230   42.5410 C.3   115  LEU115      0.0001
     44  N         21.4680   56.1740   44.3890 N.am  116  VAL116     -0.1980
     45  CA        21.8950   57.0720   45.4620 C.3   116  VAL116      0.1595
     46  C         20.7160   57.3540   46.4180 C.2   116  VAL116      0.2287
     47  O         20.8810   57.3360   47.6450 O.2   116  VAL116     -0.2864
     48  CB        22.5080   58.3990   44.9160 C.3   116  VAL116      0.0276
     49  CG1       22.9120   59.3220   46.1050 C.3   116  VAL116      0.0022
     50  CG2       23.7320   58.0850   44.0110 C.3   116  VAL116      0.0022
     51  N         20.1140   54.4030   48.7760 N.3   119  HIS119     -0.1226
     52  CA        21.1110   54.4120   49.8520 C.3   119  HIS119      0.1752
     53  C         20.7530   55.4640   50.9290 C.2   119  HIS119      0.2595
     54  O         20.7670   55.1890   52.1370 O.2   119  HIS119     -0.2718
     55  CB        22.4920   54.7170   49.2620 C.3   119  HIS119      0.0759
     56  CG        23.5810   54.8250   50.2870 C.ar  119  HIS119      0.0818
     57  ND1       24.3720   53.7570   50.6360 N.ar  119  HIS119     -0.2268
     58  CD2       24.0600   55.8920   50.9720 C.ar  119  HIS119      0.1154
     59  CE1       25.3030   54.1550   51.4890 C.ar  119  HIS119      0.1986
     60  NE2       25.1450   55.4500   51.6990 N.ar  119  HIS119     -0.2212
     61  N         20.4440   56.6770   50.4820 N.am  120  GLU120     -0.1979
     62  CA        20.0910   57.7310   51.4150 C.3   120  GLU120      0.1602
     63  C         18.8690   57.3710   52.2610 C.2   120  GLU120      0.2287
     64  O         18.8480   57.6230   53.4680 O.2   120  GLU120     -0.2864
     65  CB        19.8680   59.0650   50.6690 C.3   120  GLU120      0.0415
     66  CG        21.1450   59.6390   50.0330 C.3   120  GLU120      0.1163
     67  CD        22.3110   59.7330   51.0070 C.2   120  GLU120      0.3649
     68  OE1       22.0940   59.9710   52.2090 O.co2 120  GLU120     -0.2457
     69  OE2       23.4590   59.5560   50.5440 O.co2 120  GLU120     -0.2457
     70  N         19.5000   55.5070   55.3590 N.3   123  HIS123     -0.1241
     71  CA        19.8710   56.3980   56.4600 C.3   123  HIS123      0.1621
     72  C         18.6060   57.0550   57.0780 C.2   123  HIS123      0.2264
     73  O         18.4700   57.1320   58.3040 O.2   123  HIS123     -0.2867
     74  CB        20.8040   57.5060   55.9590 C.3   123  HIS123      0.0745
     75  CG        22.1890   57.0490   55.6240 C.ar  123  HIS123      0.0817
     76  ND1       22.9140   56.2050   56.4420 N.ar  123  HIS123     -0.2268
     77  CD2       23.0320   57.4270   54.6310 C.ar  123  HIS123      0.1154
     78  CE1       24.1440   56.0970   55.9800 C.ar  123  HIS123      0.1986
     79  NE2       24.2510   56.8430   54.8890 N.ar  123  HIS123     -0.2212
     80  N         26.2380   52.7460   57.9140 N.3   129  HIS129     -0.1241
     81  CA        26.9410   52.0490   56.8510 C.3   129  HIS129      0.1621
     82  C         27.2470   50.5930   57.1900 C.2   129  HIS129      0.2264
     83  O         27.5330   50.2580   58.3460 O.2   129  HIS129     -0.2867
     84  CB        28.2300   52.7810   56.4970 C.3   129  HIS129      0.0745
     85  CG        28.0130   54.0460   55.7230 C.ar  129  HIS129      0.0817
     86  ND1       28.7990   55.1620   55.8980 N.ar  129  HIS129     -0.2268
     87  CD2       27.1540   54.3470   54.7190 C.ar  129  HIS129      0.1154
     88  CE1       28.4500   56.0900   55.0300 C.ar  129  HIS129      0.1986
     89  NE2       27.4570   55.6200   54.2930 N.ar  129  HIS129     -0.2212
     90  N         26.5280   45.3730   50.0760 N.3   135  ALA135     -0.1231
     91  CA        25.3350   46.0050   50.6190 C.3   135  ALA135      0.1694
     92  C         25.0610   47.3720   50.0050 C.2   135  ALA135      0.2591
     93  O         25.9820   48.0950   49.6270 O.2   135  ALA135     -0.2718
     94  CB        25.4480   46.1370   52.1270 C.3   135  ALA135      0.0304
     95  N         23.7780   47.7010   49.8590 N.am  136  LEU136     -0.1980
     96  CA        23.3800   49.0120   49.3440 C.3   136  LEU136      0.1596
     97  C         23.9030   50.0880   50.3140 C.2   136  LEU136      0.2287
     98  O         24.2820   51.1830   49.8830 O.2   136  LEU136     -0.2864
     99  CB        21.8580   49.0920   49.2270 C.3   136  LEU136      0.0297
    100  CG        21.2290   50.4450   48.8560 C.3   136  LEU136      0.0022
    101  CD1       21.7860   50.9500   47.5230 C.3   136  LEU136      0.0001
    102  CD2       19.6890   50.2990   48.7840 C.3   136  LEU136      0.0001
    103  N         26.7330   50.1410   51.8630 N.3   138  TYR138     -0.1228
    104  CA        28.1930   50.1720   51.8670 C.3   138  TYR138      0.1721
    105  C         28.5640   51.6710   51.6960 C.2   138  TYR138      0.2437
    106  O         27.8480   52.4080   51.0080 O.2   138  TYR138     -0.2733
    107  CB        28.7200   49.3270   50.7000 C.3   138  TYR138      0.0547
    108  CG        30.2070   49.0760   50.7850 C.ar  138  TYR138     -0.0200
    109  CD1       30.7570   48.4400   51.9020 C.ar  138  TYR138     -0.0009
    110  CD2       31.0710   49.5380   49.7860 C.ar  138  TYR138     -0.0009
    111  CE1       32.1260   48.2780   52.0300 C.ar  138  TYR138      0.0417
    112  CE2       32.4450   49.3790   49.9020 C.ar  138  TYR138      0.0417
    113  CZ        32.9630   48.7520   51.0250 C.ar  138  TYR138      0.1957
    114  OH        34.3280   48.6280   51.1260 O.3   138  TYR138     -0.2866
    115  N         29.6770   52.1420   52.3050 N.am  139  PRO139     -0.2718
    116  CA        30.0620   53.5610   52.1950 C.3   139  PRO139      0.1535
    117  C         30.4080   54.1630   50.8350 C.2   139  PRO139      0.2599
    118  O         30.3610   55.3950   50.7010 O.2   139  PRO139     -0.2715
    119  CB        31.2420   53.6860   53.1680 C.3   139  PRO139      0.0310
    120  CG        31.0440   52.5760   54.1140 C.3   139  PRO139      0.0237
    121  CD        30.6100   51.4500   53.2070 C.3   139  PRO139      0.0939
    122  N         30.7340   53.3360   49.8440 N.am  140  ASN140     -0.1959
    123  CA        31.0790   53.8450   48.5130 C.3   140  ASN140      0.1819
    124  C         30.0910   53.4540   47.4090 C.2   140  ASN140      0.2621
    125  O         29.6270   52.3100   47.3260 O.2   140  ASN140     -0.2715
    126  CB        32.5080   53.4430   48.0900 C.3   140  ASN140      0.1195
    127  CG        33.6200   54.1370   48.9230 C.2   140  ASN140      0.2630
    128  OD1       34.6390   53.5160   49.2480 O.2   140  ASN140     -0.2716
    129  ND2       33.4290   55.4120   49.2470 N.am  140  ASN140     -0.0877
    130  N         29.8110   54.4150   46.5400 N.am  141  TYR141     -0.1960
    131  CA        28.8950   54.2360   45.4320 C.3   141  TYR141      0.1771
    132  C         29.4280   53.2970   44.3580 C.2   141  TYR141      0.2619
    133  O         30.6360   53.2800   44.0600 O.2   141  TYR141     -0.2715
    134  CB        28.5970   55.6020   44.8030 C.3   141  TYR141      0.0574
    135  CG        27.8820   55.5490   43.4670 C.ar  141  TYR141     -0.0198
    136  CD1       28.5930   55.3870   42.2740 C.ar  141  TYR141     -0.0009
    137  CD2       26.4920   55.6460   43.3950 C.ar  141  TYR141     -0.0009
    138  CE1       27.9340   55.3170   41.0410 C.ar  141  TYR141      0.0417
    139  CE2       25.8260   55.5830   42.1730 C.ar  141  TYR141      0.0417
    140  CZ        26.5430   55.4190   41.0010 C.ar  141  TYR141      0.1957
    141  OH        25.8830   55.3580   39.7960 O.3   141  TYR141     -0.2866
    142  N         28.5150   52.5370   43.7630 N.am  142  ALA142     -0.1977
    143  CA        28.8410   51.6350   42.6780 C.3   142  ALA142      0.1597
    144  C         27.5490   51.3280   41.9340 C.2   142  ALA142      0.2287
    145  O         26.4980   51.1490   42.5520 O.2   142  ALA142     -0.2864
    146  CB        29.4560   50.3490   43.2150 C.3   142  ALA142      0.0319
    147  N         24.8440   49.1640   39.8260 N.3   144  ARG144     -0.1245
    148  CA        24.3270   47.7920   39.7910 C.3   144  ARG144      0.1563
    149  C         23.1160   47.9210   38.8840 C.2   144  ARG144      0.2260
    150  O         22.4880   48.9880   38.8560 O.2   144  ARG144     -0.2867
    151  CB        23.7900   47.3020   41.1420 C.3   144  ARG144      0.0307
    152  CG        24.7180   47.3880   42.2980 C.3   144  ARG144      0.0489
    153  CD        24.5010   48.6980   43.0370 C.3   144  ARG144      0.2205
    154  NE        25.4870   48.8410   44.0990 N.pl3 144  ARG144     -0.0865
    155  CZ        25.3710   48.2940   45.3040 C.cat 144  ARG144      0.5346
    156  NH1       24.2740   47.6230   45.6590 N.pl3 144  ARG144      0.1354
    157  NH2       26.3390   48.4710   46.1790 N.pl3 144  ARG144      0.1354
@<TRIPOS>BOND
     1   150   149    2
     2   149   148    1
     3   148   147    1
     4   148   151    1
     5   141   140    1
     6   140   138   ar
     7   140   139   ar
     8   138   136   ar
     9    42    41    1
    10   151   152    1
    11    41    43    1
    12    41    40    1
    13   144   145    2
    14   144   143    1
    15   139   137   ar
    16   136   135   ar
    17   152   153    1
    18    36    37    1
    19   143   146    1
    20   143   142    1
    21    40    37    1
    22   153   154    1
    23   137   135   ar
    24   135   134    1
    25    37    38    1
    26   142   132   am
    27    50    48    1
    28   133   132    2
    29   154   155    2
    30    20    18    1
    31   132   131    1
    32    44    38   am
    33    44    45    1
    34    38    39    2
    35     1     2    1
    36   134   131    1
    37    19    18    1
    38    48    45    1
    39    48    49    1
    40    18    17    1
    41   155   156    1
    42   155   157    1
    43   131   130    1
    44    45    46    1
    45    17    14    1
    46     2     3    1
    47    16    15    2
    48    14    15    1
    49    14    13    1
    50     4     3    2
    51    46    47    2
    52   130   124   am
    53     8     7    2
    54     3     5   am
    55    15    21   am
    56   125   124    2
    57    13     7   am
    58   124   123    1
    59     7     6    1
    60   101   100    1
    61     5     6    1
    62   126   123    1
    63   126   127    1
    64    21    22    1
    65    25    22    1
    66     6     9    1
    67   123   122    1
    68    51    52    1
    69   102   100    1
    70   100    99    1
    71   127   129   am
    72   127   128    2
    73    22    23    1
    74    99    96    1
    75    55    52    1
    76    55    56    1
    77    96    95    1
    78    96    97    1
    79    93    92    2
    80   110   112   ar
    81   110   108   ar
    82     9    11    1
    83     9    10    1
    84   122   117   am
    85    52    53    1
    86    95    92   am
    87    98    97    2
    88   112   113   ar
    89    92    91    1
    90    66    65    1
    91    66    67    1
    92    90    91    1
    93    56    57   ar
    94    56    58   ar
    95    23    24    2
    96    23    26   am
    97    61    53   am
    98    61    62    1
    99    69    67   ar
   100    91    94    1
   101    57    59   ar
   102    65    62    1
   103   107   108    1
   104   107   104    1
   105   118   117    2
   106   108   109   ar
   107    10    12    1
   108   117   116    1
   109    53    54    2
   110    58    60   ar
   111    67    68   ar
   112   106   105    2
   113   113   114    1
   114   113   111   ar
   115    26    27    1
   116    62    63    1
   117    59    60   ar
   118   105   104    1
   119   105   115   am
   120   103   104    1
   121   109   111   ar
   122   116   115    1
   123   116   119    1
   124    63    64    2
   125   115   121    1
   126    29    28    2
   127    27    28    1
   128    27    30    1
   129   119   120    1
   130   121   120    1
   131    32    34   ar
   132    32    31   ar
   133    34    35   ar
   134    31    30    1
   135    31    33   ar
   136    35    33   ar
   137    89    87   ar
   138    89    88   ar
   139    77    79   ar
   140    77    75   ar
   141    87    85   ar
   142    79    78   ar
   143    88    86   ar
   144    70    71    1
   145    75    74    1
   146    75    76   ar
   147    85    86   ar
   148    85    84    1
   149    74    71    1
   150    78    76   ar
   151    71    72    1
   152    84    81    1
   153    81    82    1
   154    81    80    1
   155    72    73    2
   156    82    83    2
