@<TRIPOS>MOLECULE
tmp/1bzyA01.pdb
 137 131 0 0 0
SMALL
GASTEIGER

@<TRIPOS>ATOM
      1  N         12.0420   95.5770   43.6670 N.3    63  VAL63      -0.1231
      2  CA        11.5870   94.5900   42.6910 C.3    63  VAL63       0.1692
      3  C         10.0890   94.4170   42.8930 C.2    63  VAL63       0.2592
      4  O          9.6520   93.7630   43.8360 O.2    63  VAL63      -0.2718
      5  CB        12.2890   93.2350   42.9050 C.3    63  VAL63       0.0266
      6  CG1       11.9230   92.2680   41.7880 C.3    63  VAL63       0.0020
      7  CG2       13.7860   93.4420   42.9610 C.3    63  VAL63       0.0020
      8  N          9.3120   95.0220   42.0020 N.am   64  LEU64      -0.1966
      9  CA         7.8530   94.9870   42.0570 C.3    64  LEU64       0.1728
     10  C          7.3110   93.6660   41.4970 C.2    64  LEU64       0.2616
     11  O          7.9550   93.0350   40.6610 O.2    64  LEU64      -0.2715
     12  CB         7.3020   96.1670   41.2450 C.3    64  LEU64       0.0311
     13  CG         6.7370   97.4580   41.8680 C.3    64  LEU64       0.0022
     14  CD1        6.9870   97.5230   43.3520 C.3    64  LEU64       0.0001
     15  CD2        7.3410   98.6540   41.1510 C.3    64  LEU64       0.0001
     16  N          6.1300   93.2410   41.9380 N.am   65  LYS65      -0.1963
     17  CA         5.3240   93.9480   42.9340 C.3    65  LYS65       0.1728
     18  C          5.5980   93.3540   44.3020 C.2    65  LYS65       0.2616
     19  O          5.3820   94.0060   45.3190 O.2    65  LYS65      -0.2715
     20  CB         3.8270   93.7530   42.6620 C.3    65  LYS65       0.0311
     21  CG         3.2780   94.3220   41.3740 C.3    65  LYS65       0.0038
     22  CD         1.7660   94.0930   41.3290 C.3    65  LYS65       0.0206
     23  CE         1.2120   94.2250   39.9170 C.3    65  LYS65       0.1093
     24  NZ        -0.1980   93.7680   39.8310 N.3    65  LYS65      -0.1314
     25  N          6.0510   92.1030   44.3090 N.am   66  GLY66      -0.1955
     26  CA         6.3000   91.3760   45.5420 C.3    66  GLY66       0.1869
     27  C          7.1000   92.0210   46.6530 C.2    66  GLY66       0.2309
     28  O          6.7410   91.8910   47.8140 O.2    66  GLY66      -0.2863
     29  N          9.8310   96.2340   37.6470 N.3    97  ARG97      -0.1231
     30  CA         8.8490   95.1680   37.7490 C.3    97  ARG97       0.1694
     31  C          9.2360   93.9830   36.8840 C.2    97  ARG97       0.2592
     32  O          9.4730   94.1290   35.6870 O.2    97  ARG97      -0.2718
     33  CB         7.4550   95.6730   37.3470 C.3    97  ARG97       0.0321
     34  CG         6.4940   94.5670   36.9160 C.3    97  ARG97       0.0489
     35  CD         5.3340   94.4000   37.8830 C.3    97  ARG97       0.2205
     36  NE         4.0510   94.6790   37.2510 N.pl3  97  ARG97      -0.0865
     37  CZ         3.1550   93.7530   36.9200 C.cat  97  ARG97       0.5346
     38  NH1        3.3880   92.4750   37.1610 N.pl3  97  ARG97       0.1354
     39  NH2        2.0230   94.1060   36.3370 N.pl3  97  ARG97       0.1354
     40  N          9.3190   92.8160   37.5090 N.am   98  LEU98      -0.1966
     41  CA         9.6440   91.5780   36.8160 C.3    98  LEU98       0.1728
     42  C          8.4720   90.6330   37.1010 C.2    98  LEU98       0.2616
     43  O          7.9300   90.6300   38.2060 O.2    98  LEU98      -0.2715
     44  CB        10.9430   90.9890   37.3710 C.3    98  LEU98       0.0311
     45  CG        12.2720   91.3230   36.6820 C.3    98  LEU98       0.0022
     46  CD1       12.2650   92.7500   36.1760 C.3    98  LEU98       0.0001
     47  CD2       13.4190   91.1150   37.6720 C.3    98  LEU98       0.0001
     48  N          8.0700   89.8470   36.1090 N.am   99  LYS99      -0.1963
     49  CA         6.9570   88.9200   36.2940 C.3    99  LYS99       0.1728
     50  C          7.2800   87.5660   35.6810 C.2    99  LYS99       0.2617
     51  O          7.8010   87.4920   34.5640 O.2    99  LYS99      -0.2715
     52  CB         5.6860   89.4850   35.6550 C.3    99  LYS99       0.0311
     53  CG         4.4390   88.6700   35.9490 C.3    99  LYS99       0.0038
     54  CD         3.2200   89.2720   35.2790 C.3    99  LYS99       0.0206
     55  CE         1.9770   88.4450   35.5710 C.3    99  LYS99       0.1093
     56  NZ         1.2780   88.8890   36.8080 N.3    99  LYS99      -0.1314
     57  N          6.9690   86.4900   36.4000 N.am  100  SER100     -0.1936
     58  CA         7.2610   85.1560   35.8870 C.3   100  SER100      0.2055
     59  C          6.4370   84.0030   36.4850 C.2   100  SER100      0.2643
     60  O          6.5220   82.8680   36.0130 O.2   100  SER100     -0.2714
     61  CB         8.7590   84.8610   36.0590 C.3   100  SER100      0.2130
     62  OG         9.1160   84.7500   37.4270 O.3   100  SER100     -0.2179
     63  N          5.6310   84.2880   37.5040 N.am  101  TYR101     -0.1973
     64  CA         4.8440   83.2310   38.1320 C.3   101  TYR101      0.1639
     65  C          3.3920   83.1330   37.7100 C.2   101  TYR101      0.2290
     66  O          2.7560   84.1300   37.3790 O.2   101  TYR101     -0.2864
     67  CB         4.9000   83.3610   39.6580 C.3   101  TYR101      0.0560
     68  CG         6.0570   82.6040   40.2610 C.ar  101  TYR101     -0.0198
     69  CD1        7.3690   82.9810   39.9940 C.ar  101  TYR101     -0.0009
     70  CD2        5.8450   81.5040   41.0850 C.ar  101  TYR101     -0.0009
     71  CE1        8.4420   82.2810   40.5310 C.ar  101  TYR101      0.0417
     72  CE2        6.9200   80.7950   41.6310 C.ar  101  TYR101      0.0417
     73  CZ         8.2130   81.1920   41.3480 C.ar  101  TYR101      0.1957
     74  OH         9.2830   80.5090   41.8780 O.3   101  TYR101     -0.2866
     75  N         14.2420   92.5860   47.3830 N.3   130  GLU130     -0.1231
     76  CA        13.3020   91.6150   46.8400 C.3   130  GLU130      0.1699
     77  C         12.5360   90.8610   47.9250 C.2   130  GLU130      0.2592
     78  O         12.9520   90.8350   49.0840 O.2   130  GLU130     -0.2718
     79  CB        14.0850   90.6410   45.9480 C.3   130  GLU130      0.0402
     80  CG        13.3430   89.3990   45.5250 C.3   130  GLU130      0.1161
     81  CD        12.2450   89.6840   44.5280 C.2   130  GLU130      0.3649
     82  OE1       11.3560   90.4980   44.8530 O.co2 130  GLU130     -0.2457
     83  OE2       12.2640   89.0910   43.4250 O.co2 130  GLU130     -0.2457
     84  N         11.4190   90.2450   47.5470 N.am  131  ASP131     -0.1974
     85  CA        10.6080   89.5030   48.5050 C.3   131  ASP131      0.1709
     86  C         11.1330   88.1070   48.8120 C.2   131  ASP131      0.2293
     87  O         11.2620   87.7320   49.9840 O.2   131  ASP131     -0.2864
     88  CB         9.1430   89.4160   48.0360 C.3   131  ASP131      0.1436
     89  CG         8.9950   88.8510   46.6180 C.2   131  ASP131      0.3671
     90  OD1       10.0070   88.4760   45.9900 O.co2 131  ASP131     -0.2456
     91  OD2        7.8490   88.7860   46.1280 O.co2 131  ASP131     -0.2456
     92  N         14.6510   84.8580   38.7710 N.3   138  THR138     -0.1218
     93  CA        14.3820   86.2920   38.7720 C.3   138  THR138      0.1862
     94  C         15.5900   87.1460   39.1370 C.2   138  THR138      0.2287
     95  O         15.9300   88.0840   38.4150 O.2   138  THR138     -0.2866
     96  CB        13.2360   86.6330   39.7370 C.3   138  THR138      0.1770
     97  OG1       12.0240   86.0340   39.2660 O.3   138  THR138     -0.2211
     98  CG2       13.0450   88.1420   39.8330 C.3   138  THR138      0.0375
     99  N          4.7230   77.5020   49.2830 N.3   183  PHE183     -0.1241
    100  CA         4.3650   78.7270   48.5790 C.3   183  PHE183      0.1605
    101  C          3.6270   79.6710   49.5190 C.2   183  PHE183      0.2264
    102  O          2.4120   79.5800   49.6890 O.2   183  PHE183     -0.2867
    103  CB         3.4920   78.4320   47.3520 C.3   183  PHE183      0.0534
    104  CG         3.4520   79.5690   46.3620 C.ar  183  PHE183     -0.0203
    105  CD1        4.4520   79.7080   45.4040 C.ar  183  PHE183     -0.0042
    106  CD2        2.4370   80.5220   46.4160 C.ar  183  PHE183     -0.0042
    107  CE1        4.4450   80.7830   44.5090 C.ar  183  PHE183     -0.0003
    108  CE2        2.4210   81.5980   45.5290 C.ar  183  PHE183     -0.0003
    109  CZ         3.4280   81.7280   44.5730 C.ar  183  PHE183     -0.0000
    110  N          1.9770   87.5310   46.5970 N.3   190  ASP190     -0.1239
    111  CA         0.6740   87.0950   46.1110 C.3   190  ASP190      0.1674
    112  C          0.5760   85.6810   45.5530 C.2   190  ASP190      0.2266
    113  O          1.5570   84.9460   45.4300 O.2   190  ASP190     -0.2867
    114  CB         0.2200   88.0300   44.9880 C.3   190  ASP190      0.1410
    115  CG         0.9270   87.7170   43.6750 C.2   190  ASP190      0.3668
    116  OD1        2.1680   87.5970   43.7120 O.co2 190  ASP190     -0.2456
    117  OD2        0.2690   87.5690   42.6230 O.co2 190  ASP190     -0.2456
    118  N         -2.1480   87.5530   42.1570 N.3   193  GLU193     -0.1245
    119  CA        -2.5270   88.9010   42.5890 C.3   193  GLU193      0.1567
    120  C         -3.2930   88.9900   43.9120 C.2   193  GLU193      0.2260
    121  O         -3.5000   90.0860   44.4380 O.2   193  GLU193     -0.2867
    122  CB        -3.3240   89.6090   41.4890 C.3   193  GLU193      0.0388
    123  CG        -2.5450   89.7900   40.1840 C.3   193  GLU193      0.1160
    124  CD        -1.1960   90.4340   40.3950 C.2   193  GLU193      0.3649
    125  OE1       -1.0850   91.3050   41.2850 O.co2 193  GLU193     -0.2457
    126  OE2       -0.2410   90.0710   39.6740 O.co2 193  GLU193     -0.2457
    127  N         -1.9280   90.0550   48.6220 N.3   196  ARG196     -0.1245
    128  CA        -0.9410   91.1190   48.8000 C.3   196  ARG196      0.1563
    129  C         -1.3880   92.0040   49.9680 C.2   196  ARG196      0.2260
    130  O         -0.5750   92.4750   50.7640 O.2   196  ARG196     -0.2867
    131  CB        -0.8370   91.9620   47.5340 C.3   196  ARG196      0.0307
    132  CG        -0.3440   91.1910   46.3300 C.3   196  ARG196      0.0489
    133  CD         0.5800   92.0530   45.4930 C.3   196  ARG196      0.2205
    134  NE         0.6940   91.5490   44.1320 N.pl3 196  ARG196     -0.0865
    135  CZ         1.7440   90.8750   43.6810 C.cat 196  ARG196      0.5346
    136  NH1        2.7740   90.6230   44.4860 N.pl3 196  ARG196      0.1354
    137  NH2        1.7540   90.4380   42.4250 N.pl3 196  ARG196      0.1354
@<TRIPOS>BOND
     1    51    50    2
     2    54    55    1
     3    54    53    1
     4    55    56    1
     5    52    53    1
     6    52    49    1
     7    50    49    1
     8    50    57   am
     9    32    31    2
    10    58    61    1
    11    58    57    1
    12    58    59    1
    13    60    59    2
    14    61    62    1
    15    48    49    1
    16    48    42   am
    17    46    45    1
    18    39    37    1
    19    59    63   am
    20    45    44    1
    21    45    47    1
    22    41    42    1
    23    41    44    1
    24    41    40    1
    25    31    40   am
    26    31    30    1
    27    34    33    1
    28    34    35    1
    29    37    38    1
    30    37    36    2
    31    42    43    2
    32    36    35    1
    33    33    30    1
    34    66    65    2
    35    63    64    1
    36    29    30    1
    37    65    64    1
    38    64    67    1
    39    95    94    2
    40    92    93    1
    41    93    94    1
    42    93    96    1
    43    97    96    1
    44    67    68    1
    45   126   124   ar
    46    96    98    1
    47    24    23    1
    48    23    22    1
    49    69    68   ar
    50    69    71   ar
    51   123   124    1
    52   123   122    1
    53    68    70   ar
    54   124   125   ar
    55    71    73   ar
    56    11    10    2
    57    70    72   ar
    58    15    13    1
    59    12    13    1
    60    12     9    1
    61    22    21    1
    62    73    72   ar
    63    73    74    1
    64    21    20    1
    65   122   119    1
    66    10    16   am
    67    10     9    1
    68     6     5    1
    69    13    14    1
    70    16    17    1
    71     8     9    1
    72     8     3   am
    73   118   119    1
    74   137   135    1
    75   119   120    1
    76   117   115   ar
    77    20    17    1
    78     2     3    1
    79     2     5    1
    80     2     1    1
    81     3     4    2
    82     5     7    1
    83    17    18    1
    84    83    81   ar
    85   115   116   ar
    86   115   114    1
    87   135   134    2
    88   135   136    1
    89   120   121    2
    90   134   133    1
    91    18    25   am
    92    18    19    2
    93    25    26    1
    94   107   109   ar
    95   107   105   ar
    96    81    82   ar
    97    81    80    1
    98   109   108   ar
    99   114   111    1
   100   105   104   ar
   101   113   112    2
   102   133   132    1
   103    80    79    1
   104   108   106   ar
   105    26    27    1
   106   112   111    1
   107    79    76    1
   108    90    89   ar
   109   111   110    1
   110    91    89   ar
   111   132   131    1
   112   104   106   ar
   113   104   103    1
   114    89    88    1
   115    27    28    2
   116    76    75    1
   117    76    77    1
   118   103   100    1
   119   131   128    1
   120    84    77   am
   121    84    85    1
   122    77    78    2
   123    88    85    1
   124    85    86    1
   125   100    99    1
   126   100   101    1
   127   127   128    1
   128   128   129    1
   129    86    87    2
   130   101   102    2
   131   129   130    2
