@<TRIPOS>MOLECULE
tmp/1bzyA00.pdb
 190 182 0 0 0
SMALL
GASTEIGER

@<TRIPOS>ATOM
      1  N         12.0420   95.5770   43.6670 N.3    63  VAL63      -0.1231
      2  CA        11.5870   94.5900   42.6910 C.3    63  VAL63       0.1692
      3  C         10.0890   94.4170   42.8930 C.2    63  VAL63       0.2591
      4  O          9.6520   93.7630   43.8360 O.2    63  VAL63      -0.2718
      5  CB        12.2890   93.2350   42.9050 C.3    63  VAL63       0.0266
      6  CG1       11.9230   92.2680   41.7880 C.3    63  VAL63       0.0020
      7  CG2       13.7860   93.4420   42.9610 C.3    63  VAL63       0.0020
      8  N          9.3120   95.0220   42.0020 N.am   64  LEU64      -0.1980
      9  CA         7.8530   94.9870   42.0570 C.3    64  LEU64       0.1596
     10  C          7.3110   93.6660   41.4970 C.2    64  LEU64       0.2287
     11  O          7.9550   93.0350   40.6610 O.2    64  LEU64      -0.2864
     12  CB         7.3020   96.1670   41.2450 C.3    64  LEU64       0.0297
     13  CG         6.7370   97.4580   41.8680 C.3    64  LEU64       0.0022
     14  CD1        6.9870   97.5230   43.3520 C.3    64  LEU64       0.0001
     15  CD2        7.3410   98.6540   41.1510 C.3    64  LEU64       0.0001
     16  N          6.0510   92.1030   44.3090 N.3    66  GLY66      -0.1225
     17  CA         6.3000   91.3760   45.5420 C.3    66  GLY66       0.1811
     18  C          7.1000   92.0210   46.6530 C.2    66  GLY66       0.2280
     19  O          6.7410   91.8910   47.8140 O.2    66  GLY66      -0.2866
     20  N          9.3190   92.8160   37.5090 N.3    98  LEU98      -0.1245
     21  CA         9.6440   91.5780   36.8160 C.3    98  LEU98       0.1561
     22  C          8.4720   90.6330   37.1010 C.2    98  LEU98       0.2260
     23  O          7.9300   90.6300   38.2060 O.2    98  LEU98      -0.2867
     24  CB        10.9430   90.9890   37.3710 C.3    98  LEU98       0.0270
     25  CG        12.2720   91.3230   36.6820 C.3    98  LEU98       0.0019
     26  CD1       12.2650   92.7500   36.1760 C.3    98  LEU98       0.0001
     27  CD2       13.4190   91.1150   37.6720 C.3    98  LEU98       0.0001
     28  N          6.9690   86.4900   36.4000 N.3   100  SER100     -0.1202
     29  CA         7.2610   85.1560   35.8870 C.3   100  SER100      0.2020
     30  C          6.4370   84.0030   36.4850 C.2   100  SER100      0.2618
     31  O          6.5220   82.8680   36.0130 O.2   100  SER100     -0.2717
     32  CB         8.7590   84.8610   36.0590 C.3   100  SER100      0.2103
     33  OG         9.1160   84.7500   37.4270 O.3   100  SER100     -0.2182
     34  N          5.6310   84.2880   37.5040 N.am  101  TYR101     -0.1975
     35  CA         4.8440   83.2310   38.1320 C.3   101  TYR101      0.1639
     36  C          3.3920   83.1330   37.7100 C.2   101  TYR101      0.2290
     37  O          2.7560   84.1300   37.3790 O.2   101  TYR101     -0.2864
     38  CB         4.9000   83.3610   39.6580 C.3   101  TYR101      0.0560
     39  CG         6.0570   82.6040   40.2610 C.ar  101  TYR101     -0.0198
     40  CD1        7.3690   82.9810   39.9940 C.ar  101  TYR101     -0.0009
     41  CD2        5.8450   81.5040   41.0850 C.ar  101  TYR101     -0.0009
     42  CE1        8.4420   82.2810   40.5310 C.ar  101  TYR101      0.0417
     43  CE2        6.9200   80.7950   41.6310 C.ar  101  TYR101      0.0417
     44  CZ         8.2130   81.1920   41.3480 C.ar  101  TYR101      0.1957
     45  OH         9.2830   80.5090   41.8780 O.3   101  TYR101     -0.2866
     46  N          6.8190   78.9830   38.5030 N.3   106  SER106     -0.1217
     47  CA         7.6770   79.8730   37.7350 C.3   106  SER106      0.1889
     48  C          7.6790   79.3940   36.2880 C.2   106  SER106      0.2288
     49  O          8.0610   78.2540   36.0070 O.2   106  SER106     -0.2866
     50  CB         9.1060   79.8360   38.2800 C.3   106  SER106      0.2089
     51  OG        10.0330   80.2840   37.3060 O.3   106  SER106     -0.2183
     52  N         14.2420   92.5860   47.3830 N.3   130  GLU130     -0.1231
     53  CA        13.3020   91.6150   46.8400 C.3   130  GLU130      0.1699
     54  C         12.5360   90.8610   47.9250 C.2   130  GLU130      0.2592
     55  O         12.9520   90.8350   49.0840 O.2   130  GLU130     -0.2718
     56  CB        14.0850   90.6410   45.9480 C.3   130  GLU130      0.0402
     57  CG        13.3430   89.3990   45.5250 C.3   130  GLU130      0.1161
     58  CD        12.2450   89.6840   44.5280 C.2   130  GLU130      0.3649
     59  OE1       11.3560   90.4980   44.8530 O.co2 130  GLU130     -0.2457
     60  OE2       12.2640   89.0910   43.4250 O.co2 130  GLU130     -0.2457
     61  N         11.4190   90.2450   47.5470 N.am  131  ASP131     -0.1960
     62  CA        10.6080   89.5030   48.5050 C.3   131  ASP131      0.1840
     63  C         11.1330   88.1070   48.8120 C.2   131  ASP131      0.2622
     64  O         11.2620   87.7320   49.9840 O.2   131  ASP131     -0.2715
     65  CB         9.1430   89.4160   48.0360 C.3   131  ASP131      0.1450
     66  CG         8.9950   88.8510   46.6180 C.2   131  ASP131      0.3671
     67  OD1       10.0070   88.4760   45.9900 O.co2 131  ASP131     -0.2456
     68  OD2        7.8490   88.7860   46.1280 O.co2 131  ASP131     -0.2456
     69  N         11.4540   87.3360   47.7770 N.am  132  ILE132     -0.1963
     70  CA        11.9380   85.9880   48.0090 C.3   132  ILE132      0.1727
     71  C         12.7410   85.4040   46.8540 C.2   132  ILE132      0.2616
     72  O         12.4870   85.7090   45.6880 O.2   132  ILE132     -0.2715
     73  CB        10.7560   85.0430   48.3070 C.3   132  ILE132      0.0290
     74  CG1       11.2570   83.6180   48.5260 C.3   132  ILE132      0.0022
     75  CG2        9.7690   85.0670   47.1470 C.3   132  ILE132      0.0023
     76  CD1       10.1960   82.6820   49.0850 C.3   132  ILE132      0.0001
     77  N         13.7190   84.5660   47.1940 N.am  133  ILE133     -0.1963
     78  CA        14.5450   83.8830   46.2000 C.3   133  ILE133      0.1727
     79  C         14.0310   82.4470   46.2290 C.2   133  ILE133      0.2616
     80  O         14.1240   81.7650   47.2570 O.2   133  ILE133     -0.2715
     81  CB        16.0480   83.8720   46.5870 C.3   133  ILE133      0.0290
     82  CG1       16.5830   85.3020   46.7280 C.3   133  ILE133      0.0022
     83  CG2       16.8410   83.0810   45.5530 C.3   133  ILE133      0.0023
     84  CD1       16.5350   86.1160   45.4640 C.3   133  ILE133      0.0001
     85  N         13.4760   82.0010   45.1070 N.am  134  ASP134     -0.1957
     86  CA        12.9280   80.6530   44.9930 C.3   134  ASP134      0.1840
     87  C         13.8450   79.8340   44.0900 C.2   134  ASP134      0.2623
     88  O         14.8020   79.2280   44.5650 O.2   134  ASP134     -0.2715
     89  CB        11.5130   80.7190   44.4090 C.3   134  ASP134      0.1450
     90  CG        10.6970   79.4710   44.6920 C.2   134  ASP134      0.3671
     91  OD1       11.2630   78.3580   44.5810 O.co2 134  ASP134     -0.2456
     92  OD2        9.4930   79.6080   45.0160 O.co2 134  ASP134     -0.2456
     93  N         13.5710   79.8240   42.7890 N.am  135  THR135     -0.1937
     94  CA        14.4210   79.0770   41.8610 C.3   135  THR135      0.2028
     95  C         15.6910   79.8700   41.5780 C.2   135  THR135      0.2643
     96  O         16.6910   79.3140   41.1260 O.2   135  THR135     -0.2714
     97  CB        13.7190   78.8110   40.5130 C.3   135  THR135      0.1808
     98  OG1       13.5320   80.0530   39.8140 O.3   135  THR135     -0.2208
     99  CG2       12.3800   78.1350   40.7240 C.3   135  THR135      0.0379
    100  N         15.6360   81.1740   41.8360 N.am  136  GLY136     -0.1939
    101  CA        16.7820   82.0400   41.6060 C.3   136  GLY136      0.2014
    102  C         16.7770   82.6920   40.2310 C.2   136  GLY136      0.2639
    103  O         17.6020   83.5540   39.9290 O.2   136  GLY136     -0.2714
    104  N         15.8290   82.2860   39.3960 N.am  137  LYS137     -0.1963
    105  CA        15.7270   82.8110   38.0380 C.3   137  LYS137      0.1728
    106  C         15.5520   84.3240   37.9610 C.2   137  LYS137      0.2617
    107  O         16.2110   84.9920   37.1720 O.2   137  LYS137     -0.2715
    108  CB        14.5690   82.1300   37.3110 C.3   137  LYS137      0.0311
    109  CG        14.8530   81.8060   35.8550 C.3   137  LYS137      0.0038
    110  CD        15.7600   80.5850   35.7150 C.3   137  LYS137      0.0206
    111  CE        15.3020   79.4330   36.5970 C.3   137  LYS137      0.1093
    112  NZ        14.8700   78.2640   35.7900 N.3   137  LYS137     -0.1314
    113  N         14.6510   84.8580   38.7710 N.am  138  THR138     -0.1937
    114  CA        14.3820   86.2920   38.7720 C.3   138  THR138      0.2028
    115  C         15.5900   87.1460   39.1370 C.2   138  THR138      0.2642
    116  O         15.9300   88.0840   38.4150 O.2   138  THR138     -0.2714
    117  CB        13.2360   86.6330   39.7370 C.3   138  THR138      0.1808
    118  OG1       12.0240   86.0340   39.2660 O.3   138  THR138     -0.2208
    119  CG2       13.0450   88.1420   39.8330 C.3   138  THR138      0.0379
    120  N         16.2230   86.8350   40.2630 N.am  139  MET139     -0.1976
    121  CA        17.3830   87.5940   40.7180 C.3   139  MET139      0.1605
    122  C         18.5590   87.4120   39.7690 C.2   139  MET139      0.2287
    123  O         19.3960   88.3020   39.6080 O.2   139  MET139     -0.2864
    124  CB        17.7820   87.1560   42.1300 C.3   139  MET139      0.0413
    125  CG        18.8110   88.0740   42.7740 C.3   139  MET139      0.0598
    126  SD        18.2930   89.8030   42.7270 S.3   139  MET139     -0.1393
    127  CE        16.6860   89.6940   43.5180 C.3   139  MET139      0.0692
    128  N         13.9890   80.4790   49.8720 N.3   162  LYS162     -0.1245
    129  CA        13.3450   79.1730   49.9590 C.3   162  LYS162      0.1561
    130  C         14.2840   77.9870   49.7750 C.2   162  LYS162      0.2260
    131  O         15.0880   77.9580   48.8430 O.2   162  LYS162     -0.2867
    132  CB        12.2250   79.0730   48.9170 C.3   162  LYS162      0.0271
    133  CG        11.2170   77.9910   49.2010 C.3   162  LYS162      0.0035
    134  CD        10.2190   77.8590   48.0650 C.3   162  LYS162      0.0206
    135  CE         9.2670   79.0520   48.0010 C.3   162  LYS162      0.1093
    136  NZ         8.0020   78.7260   47.2800 N.3   162  LYS162     -0.1314
    137  N          7.5800   75.8550   50.6070 N.3   182  LYS182     -0.1231
    138  CA         6.1490   76.1070   50.6610 C.3   182  LYS182      0.1693
    139  C          5.8720   77.4170   49.9420 C.2   182  LYS182      0.2592
    140  O          6.6990   78.3350   49.9760 O.2   182  LYS182     -0.2718
    141  CB         5.6800   76.2110   52.1180 C.3   182  LYS182      0.0285
    142  CG         5.7810   74.9140   52.9040 C.3   182  LYS182      0.0035
    143  CD         4.6830   74.8160   53.9350 C.3   182  LYS182      0.0206
    144  CE         4.7140   73.4650   54.6400 C.3   182  LYS182      0.1093
    145  NZ         5.5910   73.4670   55.8450 N.3   182  LYS182     -0.1314
    146  N          4.7230   77.5020   49.2830 N.am  183  PHE183     -0.1962
    147  CA         4.3650   78.7270   48.5790 C.3   183  PHE183      0.1771
    148  C          3.6270   79.6710   49.5190 C.2   183  PHE183      0.2619
    149  O          2.4120   79.5800   49.6890 O.2   183  PHE183     -0.2715
    150  CB         3.4920   78.4320   47.3520 C.3   183  PHE183      0.0574
    151  CG         3.4520   79.5690   46.3620 C.ar  183  PHE183     -0.0200
    152  CD1        4.4520   79.7080   45.4040 C.ar  183  PHE183     -0.0042
    153  CD2        2.4370   80.5220   46.4160 C.ar  183  PHE183     -0.0042
    154  CE1        4.4450   80.7830   44.5090 C.ar  183  PHE183     -0.0003
    155  CE2        2.4210   81.5980   45.5290 C.ar  183  PHE183     -0.0003
    156  CZ         3.4280   81.7280   44.5730 C.ar  183  PHE183     -0.0000
    157  N          4.3850   80.5820   50.1210 N.am  184  VAL184     -0.1977
    158  CA         3.8510   81.5570   51.0530 C.3   184  VAL184      0.1596
    159  C          3.2050   82.7530   50.3580 C.2   184  VAL184      0.2287
    160  O          3.5240   83.0760   49.2180 O.2   184  VAL184     -0.2864
    161  CB         4.9630   82.0730   51.9900 C.3   184  VAL184      0.0276
    162  CG1        5.4420   80.9500   52.8690 C.3   184  VAL184      0.0022
    163  CG2        6.1340   82.6350   51.1690 C.3   184  VAL184      0.0022
    164  N          3.3970   89.4900   49.0060 N.3   189  LEU189     -0.1231
    165  CA         3.6100   88.2650   48.2270 C.3   189  LEU189      0.1693
    166  C          2.2210   87.7250   47.8900 C.2   189  LEU189      0.2592
    167  O          1.3950   87.4790   48.7810 O.2   189  LEU189     -0.2718
    168  CB         4.4120   87.2270   49.0310 C.3   189  LEU189      0.0284
    169  CG         5.9360   87.4010   49.1230 C.3   189  LEU189      0.0019
    170  CD1        6.2640   88.2900   50.3080 C.3   189  LEU189      0.0001
    171  CD2        6.6190   86.0440   49.2950 C.3   189  LEU189      0.0001
    172  N          1.9770   87.5310   46.5970 N.am  190  ASP190     -0.1974
    173  CA         0.6740   87.0950   46.1110 C.3   190  ASP190      0.1709
    174  C          0.5760   85.6810   45.5530 C.2   190  ASP190      0.2293
    175  O          1.5570   84.9460   45.4300 O.2   190  ASP190     -0.2864
    176  CB         0.2200   88.0300   44.9880 C.3   190  ASP190      0.1436
    177  CG         0.9270   87.7170   43.6750 C.2   190  ASP190      0.3671
    178  OD1        2.1680   87.5970   43.7120 O.co2 190  ASP190     -0.2456
    179  OD2        0.2690   87.5690   42.6230 O.co2 190  ASP190     -0.2456
    180  N         -1.9280   90.0550   48.6220 N.3   196  ARG196     -0.1245
    181  CA        -0.9410   91.1190   48.8000 C.3   196  ARG196      0.1563
    182  C         -1.3880   92.0040   49.9680 C.2   196  ARG196      0.2260
    183  O         -0.5750   92.4750   50.7640 O.2   196  ARG196     -0.2867
    184  CB        -0.8370   91.9620   47.5340 C.3   196  ARG196      0.0307
    185  CG        -0.3440   91.1910   46.3300 C.3   196  ARG196      0.0489
    186  CD         0.5800   92.0530   45.4930 C.3   196  ARG196      0.2205
    187  NE         0.6940   91.5490   44.1320 N.pl3 196  ARG196     -0.0865
    188  CZ         1.7440   90.8750   43.6810 C.cat 196  ARG196      0.5346
    189  NH1        2.7740   90.6230   44.4860 N.pl3 196  ARG196      0.1354
    190  NH2        1.7540   90.4380   42.4250 N.pl3 196  ARG196      0.1354
@<TRIPOS>BOND
     1   110   109    1
     2   110   111    1
     3   112   111    1
     4   109   108    1
     5    29    32    1
     6    29    28    1
     7    29    30    1
     8    49    48    2
     9    31    30    2
    10    32    33    1
    11    26    25    1
    12    48    47    1
    13    30    34   am
    14    25    24    1
    15    25    27    1
    16    21    22    1
    17    21    24    1
    18    21    20    1
    19    22    23    2
    20   107   106    2
    21    51    50    1
    22   108   105    1
    23    37    36    2
    24    34    35    1
    25    36    35    1
    26    47    50    1
    27    47    46    1
    28   106   105    1
    29   106   113   am
    30   105   104    1
    31    35    38    1
    32   116   115    2
    33   113   114    1
    34   114   115    1
    35   114   117    1
    36   115   120   am
    37   118   117    1
    38   104   102   am
    39   123   122    2
    40    38    39    1
    41   117   119    1
    42   122   121    1
    43    98    97    1
    44   103   102    2
    45    40    39   ar
    46    40    42   ar
    47   102   101    1
    48    39    41   ar
    49   120   121    1
    50    97    99    1
    51    97    94    1
    52    42    44   ar
    53    11    10    2
    54   121   124    1
    55    41    43   ar
    56    96    95    2
    57    15    13    1
    58    12    13    1
    59    12     9    1
    60    44    43   ar
    61    44    45    1
    62    10     9    1
    63    95   100   am
    64    95    94    1
    65   101   100    1
    66     6     5    1
    67    94    93    1
    68    13    14    1
    69     8     9    1
    70     8     3   am
    71   124   125    1
    72   190   188    1
    73   179   177   ar
    74     2     3    1
    75     2     5    1
    76     2     1    1
    77   126   125    1
    78   126   127    1
    79    93    87   am
    80     3     4    2
    81     5     7    1
    82    60    58   ar
    83   177   178   ar
    84   177   176    1
    85   188   187    2
    86   188   189    1
    87    87    88    2
    88    87    86    1
    89   187   186    1
    90    16    17    1
    91    89    90    1
    92    89    86    1
    93   154   156   ar
    94   154   152   ar
    95    58    59   ar
    96    58    57    1
    97   156   155   ar
    98    91    90   ar
    99    90    92   ar
   100   176   173    1
   101    86    85    1
   102    85    79   am
   103   152   151   ar
   104   175   174    2
   105    84    82    1
   106   186   185    1
   107    57    56    1
   108   155   153   ar
   109    17    18    1
   110    83    81    1
   111   174   173    1
   112    72    71    2
   113    56    53    1
   114    67    66   ar
   115   173   172    1
   116    68    66   ar
   117    78    79    1
   118    78    81    1
   119    78    77    1
   120    79    80    2
   121   185   184    1
   122   151   153   ar
   123   151   150    1
   124    81    82    1
   125   172   166   am
   126    66    65    1
   127    18    19    2
   128    53    52    1
   129    53    54    1
   130    71    77   am
   131    71    70    1
   132    75    73    1
   133   136   135    1
   134   150   147    1
   135   184   181    1
   136    61    54   am
   137    61    62    1
   138    69    70    1
   139    69    63   am
   140   166   165    1
   141   166   167    2
   142    54    55    2
   143   135   134    1
   144    70    73    1
   145    65    62    1
   146   134   133    1
   147   165   164    1
   148   165   168    1
   149    73    74    1
   150    62    63    1
   151    74    76    1
   152   147   146    1
   153   147   148    1
   154   180   181    1
   155   181   182    1
   156    63    64    2
   157   131   130    2
   158   132   133    1
   159   132   129    1
   160   168   169    1
   161   169   171    1
   162   169   170    1
   163   160   159    2
   164   146   139   am
   165   148   149    2
   166   148   157   am
   167   130   129    1
   168   128   129    1
   169   139   140    2
   170   139   138    1
   171   182   183    2
   172   157   158    1
   173   159   158    1
   174   137   138    1
   175   138   141    1
   176   158   161    1
   177   163   161    1
   178   161   162    1
   179   141   142    1
   180   142   143    1
   181   143   144    1
   182   144   145    1
