@<TRIPOS>MOLECULE
tmp/1c0aB00.pdb
 125 125 0 0 0
SMALL
GASTEIGER

@<TRIPOS>ATOM
      1  N         68.5270    4.3970  -32.7160 N.3   304  PHE304     -0.1241
      2  CA        67.9870    4.6800  -31.3940 C.3   304  PHE304      0.1605
      3  C         66.8000    5.6580  -31.4690 C.2   304  PHE304      0.2264
      4  O         66.9900    6.8700  -31.5810 O.2   304  PHE304     -0.2867
      5  CB        69.1510    5.2760  -30.6010 C.3   304  PHE304      0.0534
      6  CG        68.9210    5.3750  -29.1420 C.ar  304  PHE304     -0.0203
      7  CD1       68.3040    4.3480  -28.4500 C.ar  304  PHE304     -0.0042
      8  CD2       69.4020    6.4750  -28.4420 C.ar  304  PHE304     -0.0042
      9  CE1       68.1710    4.4120  -27.0740 C.ar  304  PHE304     -0.0003
     10  CE2       69.2770    6.5510  -27.0770 C.ar  304  PHE304     -0.0003
     11  CZ        68.6610    5.5200  -26.3850 C.ar  304  PHE304     -0.0000
     12  N         64.9300    6.7840  -29.2410 N.3   306  VAL306     -0.1231
     13  CA        64.9770    7.7630  -28.1670 C.3   306  VAL306      0.1692
     14  C         65.6040    9.0860  -28.6400 C.2   306  VAL306      0.2592
     15  O         65.2190   10.1510  -28.1840 O.2   306  VAL306     -0.2718
     16  CB        65.7480    7.1980  -26.9600 C.3   306  VAL306      0.0266
     17  CG1       66.3050    8.3220  -26.0860 C.3   306  VAL306      0.0020
     18  CG2       64.8210    6.3350  -26.1560 C.3   306  VAL306      0.0020
     19  N         66.5560    9.0090  -29.5600 N.am  307  PHE307     -0.1976
     20  CA        67.2060   10.2010  -30.1030 C.3   307  PHE307      0.1639
     21  C         66.6380   10.5790  -31.4680 C.2   307  PHE307      0.2290
     22  O         66.4000   11.7550  -31.7560 O.2   307  PHE307     -0.2864
     23  CB        68.7200    9.9740  -30.2880 C.3   307  PHE307      0.0560
     24  CG        69.5320   10.1470  -29.0370 C.ar  307  PHE307     -0.0200
     25  CD1       68.9530   10.6880  -27.9050 C.ar  307  PHE307     -0.0042
     26  CD2       70.8690    9.7820  -28.9960 C.ar  307  PHE307     -0.0042
     27  CE1       69.6910   10.8720  -26.7510 C.ar  307  PHE307     -0.0003
     28  CE2       71.6190    9.9570  -27.8460 C.ar  307  PHE307     -0.0003
     29  CZ        71.0300   10.5060  -26.7170 C.ar  307  PHE307     -0.0000
     30  N         61.2640   14.1880  -18.3140 N.3   346  ALA346     -0.1231
     31  CA        62.2350   13.4500  -19.1040 C.3   346  ALA346      0.1694
     32  C         62.0000   11.9590  -18.8750 C.2   346  ALA346      0.2592
     33  O         61.6970   11.5450  -17.7590 O.2   346  ALA346     -0.2718
     34  CB        63.6270   13.8270  -18.6780 C.3   346  ALA346      0.0304
     35  N         62.1410   11.1520  -19.9250 N.am  347  LYS347     -0.1966
     36  CA        61.9440    9.7050  -19.7940 C.3   347  LYS347      0.1728
     37  C         63.2680    9.0100  -19.4520 C.2   347  LYS347      0.2617
     38  O         63.3000    7.8250  -19.0970 O.2   347  LYS347     -0.2715
     39  CB        61.3690    9.1180  -21.0880 C.3   347  LYS347      0.0311
     40  CG        60.2290    9.9240  -21.7140 C.3   347  LYS347      0.0038
     41  CD        59.0220   10.0910  -20.7870 C.3   347  LYS347      0.0206
     42  CE        57.8900   10.8680  -21.4890 C.3   347  LYS347      0.1093
     43  NZ        58.2920   12.2610  -21.9030 N.3   347  LYS347     -0.1314
     44  N         64.3630    9.7550  -19.5540 N.am  348  GLY348     -0.1940
     45  CA        65.6640    9.1960  -19.2350 C.3   348  GLY348      0.2014
     46  C         66.7290   10.2710  -19.2250 C.2   348  GLY348      0.2639
     47  O         66.4330   11.4590  -19.3770 O.2   348  GLY348     -0.2714
     48  N         67.9740    9.8590  -19.0290 N.am  349  LEU349     -0.1963
     49  CA        69.0860   10.7950  -19.0250 C.3   349  LEU349      0.1728
     50  C         70.3290   10.1140  -19.5850 C.2   349  LEU349      0.2616
     51  O         71.1460    9.5760  -18.8380 O.2   349  LEU349     -0.2715
     52  CB        69.3720   11.2930  -17.6150 C.3   349  LEU349      0.0311
     53  CG        70.4590   12.3700  -17.4940 C.3   349  LEU349      0.0022
     54  CD1       70.0370   13.6600  -18.1930 C.3   349  LEU349      0.0001
     55  CD2       70.7110   12.6330  -16.0290 C.3   349  LEU349      0.0001
     56  N         70.4540   10.1150  -20.9040 N.am  350  ALA350     -0.1963
     57  CA        71.6150    9.5130  -21.5350 C.3   350  ALA350      0.1728
     58  C         72.8030   10.4420  -21.2660 C.2   350  ALA350      0.2616
     59  O         72.6430   11.6670  -21.1630 O.2   350  ALA350     -0.2715
     60  CB        71.3910    9.3710  -23.0280 C.3   350  ALA350      0.0334
     61  N         73.9880    9.8530  -21.1370 N.am  351  TYR351     -0.1974
     62  CA        75.1870   10.6340  -20.8910 C.3   351  TYR351      0.1639
     63  C         76.4190   10.0340  -21.5560 C.2   351  TYR351      0.2290
     64  O         76.4420    8.8770  -21.9690 O.2   351  TYR351     -0.2864
     65  CB        75.4680   10.7560  -19.3850 C.3   351  TYR351      0.0560
     66  CG        75.7860    9.4360  -18.7360 C.ar  351  TYR351     -0.0198
     67  CD1       74.7760    8.6270  -18.2240 C.ar  351  TYR351     -0.0009
     68  CD2       77.0960    8.9550  -18.7060 C.ar  351  TYR351     -0.0009
     69  CE1       75.0600    7.3490  -17.6930 C.ar  351  TYR351      0.0417
     70  CE2       77.3950    7.6930  -18.1860 C.ar  351  TYR351      0.0417
     71  CZ        76.3720    6.8950  -17.6830 C.ar  351  TYR351      0.1957
     72  OH        76.6650    5.6460  -17.1880 O.3   351  TYR351     -0.2866
     73  N         76.4050    4.5860  -21.9000 N.3   367  PRO367     -0.2102
     74  CA        75.4100    3.5390  -22.1130 C.3   367  PRO367      0.1504
     75  C         74.6770    3.7840  -23.4180 C.2   367  PRO367      0.2575
     76  O         73.8560    2.9740  -23.8410 O.2   367  PRO367     -0.2718
     77  CB        74.4910    3.6850  -20.9000 C.3   367  PRO367      0.0282
     78  CG        74.5880    5.1520  -20.5350 C.3   367  PRO367      0.0208
     79  CD        76.0520    5.4050  -20.7270 C.3   367  PRO367      0.0893
     80  N         74.9730    4.9090  -24.0580 N.am  368  VAL368     -0.1980
     81  CA        74.3200    5.2260  -25.3110 C.3   368  VAL368      0.1595
     82  C         75.2870    5.1520  -26.5160 C.2   368  VAL368      0.2287
     83  O         74.8780    5.2900  -27.6800 O.2   368  VAL368     -0.2864
     84  CB        73.6210    6.6070  -25.1840 C.3   368  VAL368      0.0276
     85  CG1       74.3710    7.6790  -25.9180 C.3   368  VAL368      0.0022
     86  CG2       72.2050    6.4930  -25.6550 C.3   368  VAL368      0.0022
     87  N         74.5390    3.0470  -29.5330 N.3   371  PHE371     -0.1241
     88  CA        73.5390    3.4780  -30.4930 C.3   371  PHE371      0.1605
     89  C         74.1280    4.5060  -31.4210 C.2   371  PHE371      0.2264
     90  O         73.5580    4.8320  -32.4480 O.2   371  PHE371     -0.2867
     91  CB        72.3360    4.0440  -29.7570 C.3   371  PHE371      0.0534
     92  CG        71.6650    3.0430  -28.8800 C.ar  371  PHE371     -0.0203
     93  CD1       71.0440    1.9280  -29.4350 C.ar  371  PHE371     -0.0042
     94  CD2       71.6940    3.1800  -27.5000 C.ar  371  PHE371     -0.0042
     95  CE1       70.4600    0.9590  -28.6260 C.ar  371  PHE371     -0.0003
     96  CE2       71.1130    2.2180  -26.6760 C.ar  371  PHE371     -0.0003
     97  CZ        70.4930    1.1030  -27.2390 C.ar  371  PHE371     -0.0000
     98  N         72.1280   14.3220  -21.9720 N.3   394  PHE394     -0.1227
     99  CA        71.2200   14.5720  -23.0740 C.3   394  PHE394      0.1736
    100  C         69.7510   14.6620  -22.6940 C.2   394  PHE394      0.2596
    101  O         69.2510   13.9100  -21.8560 O.2   394  PHE394     -0.2718
    102  CB        71.3500   13.4890  -24.1420 C.3   394  PHE394      0.0547
    103  CG        72.7020   13.4140  -24.7770 C.ar  394  PHE394     -0.0202
    104  CD1       73.7380   12.7190  -24.1620 C.ar  394  PHE394     -0.0042
    105  CD2       72.9320   14.0060  -26.0150 C.ar  394  PHE394     -0.0042
    106  CE1       74.9810   12.6120  -24.7740 C.ar  394  PHE394     -0.0003
    107  CE2       74.1730   13.9070  -26.6410 C.ar  394  PHE394     -0.0003
    108  CZ        75.2010   13.2100  -26.0240 C.ar  394  PHE394     -0.0000
    109  N         69.0680   15.5950  -23.3340 N.am  395  GLY395     -0.1942
    110  CA        67.6520   15.7430  -23.1260 C.3   395  GLY395      0.2014
    111  C         67.0810   15.4820  -24.5040 C.2   395  GLY395      0.2639
    112  O         67.3980   16.2090  -25.4420 O.2   395  GLY395     -0.2714
    113  N         66.2650   14.4490  -24.6520 N.am  396  ALA396     -0.1963
    114  CA        65.6840   14.1390  -25.9560 C.3   396  ALA396      0.1728
    115  C         64.1610   13.9650  -25.7960 C.2   396  ALA396      0.2616
    116  O         63.6880   12.9390  -25.2870 O.2   396  ALA396     -0.2715
    117  CB        66.3620   12.9060  -26.5360 C.3   396  ALA396      0.0334
    118  N         63.4300   15.0120  -26.2120 N.am  397  ASP397     -0.1971
    119  CA        61.9430   14.9970  -26.2130 C.3   397  ASP397      0.1709
    120  C         61.3430   16.1710  -27.0090 C.2   397  ASP397      0.2293
    121  O         62.0210   16.7810  -27.8560 O.2   397  ASP397     -0.2864
    122  CB        61.3680   15.0870  -24.8030 C.3   397  ASP397      0.1436
    123  CG        60.2180   14.0990  -24.5930 C.2   397  ASP397      0.3671
    124  OD1       59.0770   14.2990  -25.1670 O.co2 397  ASP397     -0.2456
    125  OD2       60.3920   13.0580  -23.8540 O.co2 397  ASP397     -0.2456
@<TRIPOS>BOND
     1     1     2    1
     2    90    89    2
     3    22    21    2
     4     4     3    2
     5     3     2    1
     6    21    20    1
     7    89    88    1
     8     2     5    1
     9     5     6    1
    10    88    91    1
    11    88    87    1
    12    23    20    1
    13    23    24    1
    14    20    19    1
    15    91    92    1
    16    19    14   am
    17    93    92   ar
    18    93    95   ar
    19    12    13    1
    20     6     7   ar
    21     6     8   ar
    22    24    26   ar
    23    24    25   ar
    24    26    28   ar
    25    92    94   ar
    26    14    15    2
    27    14    13    1
    28    95    97   ar
    29     7     9   ar
    30     8    10   ar
    31    13    16    1
    32    25    27   ar
    33   121   120    2
    34    28    29   ar
    35    83    82    2
    36    94    96   ar
    37    97    96   ar
    38    10    11   ar
    39     9    11   ar
    40   120   119    1
    41    16    18    1
    42    16    17    1
    43    27    29   ar
    44   107   108   ar
    45   107   105   ar
    46   117   114    1
    47    82    81    1
    48   119   118    1
    49   119   122    1
    50   118   115   am
    51   108   106   ar
    52   105   103   ar
    53   114   115    1
    54   114   113    1
    55    85    84    1
    56   115   116    2
    57    86    84    1
    58   112   111    2
    59    81    84    1
    60    81    80    1
    61   124   123   ar
    62   122   123    1
    63   103   104   ar
    64   103   102    1
    65   106   104   ar
    66   113   111   am
    67   123   125   ar
    68   111   110    1
    69   102    99    1
    70    80    75   am
    71    76    75    2
    72    75    74    1
    73   109   110    1
    74   109   100   am
    75    99   100    1
    76    99    98    1
    77    60    57    1
    78   100   101    2
    79    74    73    1
    80    74    77    1
    81    64    63    2
    82    43    42    1
    83    73    79    1
    84    40    39    1
    85    40    41    1
    86    63    62    1
    87    57    58    1
    88    57    56    1
    89    42    41    1
    90    58    59    2
    91    58    61   am
    92    61    62    1
    93    39    36    1
    94    56    50   am
    95    77    78    1
    96    62    65    1
    97    79    78    1
    98    35    36    1
    99    35    32   am
   100    36    37    1
   101    50    49    1
   102    50    51    2
   103    44    37   am
   104    44    45    1
   105    37    38    2
   106    65    66    1
   107    47    46    2
   108    45    46    1
   109    46    48   am
   110    31    32    1
   111    31    34    1
   112    31    30    1
   113    48    49    1
   114    49    52    1
   115    32    33    2
   116    66    68   ar
   117    66    67   ar
   118    68    70   ar
   119    67    69   ar
   120    54    53    1
   121    70    71   ar
   122    69    71   ar
   123    71    72    1
   124    52    53    1
   125    53    55    1
