@<TRIPOS>MOLECULE
tmp/1c0lA00.pdb
 89 82 0 0 0
SMALL
GASTEIGER

@<TRIPOS>ATOM
      1  N         30.8920  129.9010   21.6090 N.3    54  GLY54      -0.1225
      2  CA        30.5510  129.6940   20.2160 C.3    54  GLY54       0.1811
      3  C         29.2420  130.3340   19.8020 C.2    54  GLY54       0.2280
      4  O         29.2210  131.1950   18.9210 O.2    54  GLY54      -0.2866
      5  N         27.8320  126.5330   20.5590 N.3    56  ASN56      -0.1240
      6  CA        26.9750  125.4920   19.9740 C.3    56  ASN56       0.1653
      7  C         26.7860  124.3430   20.9640 C.2    56  ASN56       0.2266
      8  O         27.2580  124.3770   22.0930 O.2    56  ASN56      -0.2867
      9  CB        27.5570  125.0010   18.6590 C.3    56  ASN56       0.1155
     10  CG        28.7930  124.1550   18.6520 C.2    56  ASN56       0.2627
     11  OD1       29.1830  123.6750   17.5690 O.2    56  ASN56      -0.2716
     12  ND2       29.4780  123.9070   19.7580 N.am   56  ASN56      -0.0877
     13  N         30.4940  116.3830   25.0730 N.3    60  PHE60      -0.1241
     14  CA        31.9100  116.0880   25.2490 C.3    60  PHE60       0.1605
     15  C         32.1580  114.8410   26.0850 C.2    60  PHE60       0.2264
     16  O         33.3090  114.4210   26.2460 O.2    60  PHE60      -0.2867
     17  CB        32.6260  117.2700   25.9190 C.3    60  PHE60       0.0534
     18  CG        32.5430  118.5690   25.1340 C.ar   60  PHE60      -0.0203
     19  CD1       31.9560  119.6930   25.6960 C.ar   60  PHE60      -0.0042
     20  CD2       33.0500  118.6550   23.8480 C.ar   60  PHE60      -0.0042
     21  CE1       31.8860  120.8710   24.9740 C.ar   60  PHE60      -0.0003
     22  CE2       32.9830  119.8290   23.1210 C.ar   60  PHE60      -0.0003
     23  CZ        32.3950  120.9430   23.6910 C.ar   60  PHE60      -0.0000
     24  N         33.6500  120.5530   13.8240 N.3   215  MET215     -0.1245
     25  CA        34.3210  120.3370   15.1000 C.3   215  MET215      0.1570
     26  C         35.3960  119.2710   14.9220 C.2   215  MET215      0.2261
     27  O         35.0840  118.1030   14.6870 O.2   215  MET215     -0.2867
     28  CB        33.3430  119.9310   16.1980 C.3   215  MET215      0.0387
     29  CG        32.0620  120.7530   16.2300 C.3   215  MET215      0.0595
     30  SD        32.3780  122.4760   16.6740 S.3   215  MET215     -0.1393
     31  CE        33.0390  122.2590   18.3300 C.3   215  MET215      0.0692
     32  N         37.9900  124.2170   15.4840 N.3   225  TYR225     -0.1241
     33  CA        36.5480  124.2250   15.2570 C.3   225  TYR225      0.1605
     34  C         36.1350  125.5150   14.5380 C.2   225  TYR225      0.2264
     35  O         36.7490  126.5680   14.6670 O.2   225  TYR225     -0.2867
     36  CB        35.7780  124.0790   16.5580 C.3   225  TYR225      0.0534
     37  CG        36.0370  124.9700   17.7360 C.ar  225  TYR225     -0.0201
     38  CD1       35.5220  126.2590   17.8020 C.ar  225  TYR225     -0.0009
     39  CD2       36.8110  124.5230   18.8080 C.ar  225  TYR225     -0.0009
     40  CE1       35.7620  127.0790   18.8920 C.ar  225  TYR225      0.0417
     41  CE2       37.0570  125.3340   19.9010 C.ar  225  TYR225      0.0417
     42  CZ        36.5320  126.6090   19.9390 C.ar  225  TYR225      0.1957
     43  OH        36.7790  127.4170   21.0290 O.3   225  TYR225     -0.2866
     44  N         32.5750  127.5450   14.2060 N.3   227  ILE227     -0.1245
     45  CA        31.1900  127.6150   14.6600 C.3   227  ILE227      0.1561
     46  C         30.4950  128.8570   14.1370 C.2   227  ILE227      0.2260
     47  O         30.7070  129.9650   14.6310 O.2   227  ILE227     -0.2867
     48  CB        31.1200  127.5990   16.2010 C.3   227  ILE227      0.0252
     49  CG1       31.6840  126.3210   16.8250 C.3   227  ILE227      0.0019
     50  CG2       29.7000  127.8620   16.6770 C.3   227  ILE227      0.0019
     51  CD1       31.8970  126.4040   18.3230 C.3   227  ILE227      0.0001
     52  N         42.5930  124.7120   24.5590 N.3   240  TYR240     -0.1241
     53  CA        42.1170  124.2010   25.8410 C.3   240  TYR240      0.1605
     54  C         43.3030  124.1920   26.8030 C.2   240  TYR240      0.2264
     55  O         43.8910  123.1560   27.0950 O.2   240  TYR240     -0.2867
     56  CB        41.4720  122.8190   25.7080 C.3   240  TYR240      0.0534
     57  CG        40.2490  122.8570   24.8100 C.ar  240  TYR240     -0.0201
     58  CD1       40.3760  122.6250   23.4450 C.ar  240  TYR240     -0.0009
     59  CD2       38.9810  123.1200   25.3080 C.ar  240  TYR240     -0.0009
     60  CE1       39.2820  122.6520   22.5990 C.ar  240  TYR240      0.0417
     61  CE2       37.8760  123.1500   24.4710 C.ar  240  TYR240      0.0417
     62  CZ        38.0330  122.9160   23.1220 C.ar  240  TYR240      0.1957
     63  OH        36.9480  122.9430   22.2790 O.3   240  TYR240     -0.2866
     64  N         37.5260  129.4670   30.3090 N.3   287  ARG287     -0.1245
     65  CA        36.3850  128.6340   30.7020 C.3   287  ARG287      0.1563
     66  C         36.4340  128.4000   32.2060 C.2   287  ARG287      0.2260
     67  O         37.5230  128.1010   32.7240 O.2   287  ARG287     -0.2867
     68  CB        36.3690  127.3160   29.9360 C.3   287  ARG287      0.0307
     69  CG        36.4660  127.4440   28.4230 C.3   287  ARG287      0.0489
     70  CD        36.7770  126.1030   27.7730 C.3   287  ARG287      0.2205
     71  NE        36.8860  126.1900   26.3180 N.pl3 287  ARG287     -0.0865
     72  CZ        37.9980  126.4750   25.6550 C.cat 287  ARG287      0.5346
     73  NH1       39.1280  126.7060   26.3120 N.pl3 287  ARG287      0.1354
     74  NH2       37.9790  126.5270   24.3300 N.pl3 287  ARG287      0.1354
     75  N         33.7670  123.8390   29.3110 N.3   337  SER337     -0.1217
     76  CA        33.4690  124.1630   27.9240 C.3   337  SER337      0.1889
     77  C         32.0280  123.8970   27.5190 C.2   337  SER337      0.2288
     78  O         31.7030  123.9250   26.3270 O.2   337  SER337     -0.2866
     79  CB        34.4140  123.3440   27.0240 C.3   337  SER337      0.2089
     80  OG        34.2700  121.9650   27.3380 O.3   337  SER337     -0.2183
     81  N         25.5360  124.8410   26.4090 N.3   341  GLN341     -0.1245
     82  CA        24.7790  123.6540   26.0190 C.3   341  GLN341      0.1566
     83  C         24.1940  122.9190   27.2180 C.2   341  GLN341      0.2260
     84  O         23.3190  122.0670   27.0320 O.2   341  GLN341     -0.2867
     85  CB        25.6790  122.7110   25.2170 C.3   341  GLN341      0.0367
     86  CG        26.8550  122.1230   25.9870 C.3   341  GLN341      0.0905
     87  CD        27.8240  121.4550   25.0190 C.2   341  GLN341      0.2608
     88  OE1       28.1130  122.0160   23.9610 O.2   341  GLN341     -0.2717
     89  NE2       28.3170  120.2780   25.3720 N.am  341  GLN341     -0.0878
@<TRIPOS>BOND
     1    24    25    1
     2    46    47    2
     3    46    45    1
     4    44    45    1
     5    34    35    2
     6    34    33    1
     7    45    48    1
     8    27    26    2
     9    26    25    1
    10    25    28    1
    11    33    32    1
    12    33    36    1
    13    28    29    1
    14    48    50    1
    15    48    49    1
    16    29    30    1
    17    36    37    1
    18    30    31    1
    19    49    51    1
    20    11    10    2
    21    37    38   ar
    22    37    39   ar
    23    38    40   ar
    24    10     9    1
    25    10    12   am
    26     9     6    1
    27    39    41   ar
    28    40    42   ar
    29     4     3    2
    30     3     2    1
    31    41    42   ar
    32    42    43    1
    33     6     5    1
    34     6     7    1
    35     2     1    1
    36     7     8    2
    37    63    62    1
    38    60    62   ar
    39    60    58   ar
    40    22    23   ar
    41    22    20   ar
    42    62    61   ar
    43    58    57   ar
    44    23    21   ar
    45    20    18   ar
    46    88    87    2
    47    74    72    1
    48    61    59   ar
    49    52    53    1
    50    57    59   ar
    51    57    56    1
    52    21    19   ar
    53    87    89   am
    54    87    86    1
    55    13    14    1
    56    18    19   ar
    57    18    17    1
    58    85    86    1
    59    85    82    1
    60    14    17    1
    61    14    15    1
    62    72    73    1
    63    72    71    2
    64    56    53    1
    65    53    54    1
    66    82    81    1
    67    82    83    1
    68    15    16    2
    69    71    70    1
    70    78    77    2
    71    54    55    2
    72    79    80    1
    73    79    76    1
    74    84    83    2
    75    77    76    1
    76    70    69    1
    77    76    75    1
    78    69    68    1
    79    68    65    1
    80    64    65    1
    81    65    66    1
    82    66    67    2
