@<TRIPOS>MOLECULE
tmp/1c0tA00.pdb
 144 142 0 0 0
SMALL
GASTEIGER

@<TRIPOS>ATOM
      1  N          9.0370  -30.8200   25.6990 N.3    60  PRO60      -0.2116
      2  CA         8.4700  -30.8250   24.3450 C.3    60  PRO60       0.1372
      3  C          7.4150  -29.7820   24.0860 C.2    60  PRO60       0.2244
      4  O          6.6760  -29.3970   24.9810 O.2    60  PRO60      -0.2868
      5  CB         7.8720  -32.2200   24.2210 C.3    60  PRO60       0.0268
      6  CG         8.6200  -33.0220   25.2320 C.3    60  PRO60       0.0207
      7  CD         8.7130  -32.0750   26.3880 C.3    60  PRO60       0.0892
      8  N          3.9780  -32.5210   18.6710 N.3    65  LEU65      -0.1231
      9  CA         3.5150  -33.8720   18.9970 C.3    65  LEU65       0.1693
     10  C          2.6060  -34.3490   17.8670 C.2    65  LEU65       0.2591
     11  O          2.0860  -33.5320   17.1060 O.2    65  LEU65      -0.2718
     12  CB         2.7310  -33.8730   20.3270 C.3    65  LEU65       0.0284
     13  CG         3.4670  -33.3720   21.5840 C.3    65  LEU65       0.0019
     14  CD1        2.5130  -33.1460   22.7210 C.3    65  LEU65       0.0001
     15  CD2        4.5310  -34.3650   21.9740 C.3    65  LEU65       0.0001
     16  N          2.4160  -35.6630   17.7420 N.am   66  LYS66      -0.1980
     17  CA         1.5370  -36.2040   16.6930 C.3    66  LYS66       0.1596
     18  C          0.2160  -36.5630   17.3550 C.2    66  LYS66       0.2287
     19  O          0.1840  -36.8850   18.5410 O.2    66  LYS66      -0.2864
     20  CB         2.1260  -37.4670   16.0510 C.3    66  LYS66       0.0298
     21  CG         3.4670  -37.2920   15.3730 C.3    66  LYS66       0.0038
     22  CD         4.5760  -37.0250   16.3780 C.3    66  LYS66       0.0206
     23  CE         5.9120  -36.8270   15.6880 C.3    66  LYS66       0.1093
     24  NZ         6.9500  -36.3670   16.6540 N.3    66  LYS66      -0.1314
     25  N         -2.8860  -38.5410   18.6660 N.3    68  LYS68      -0.1245
     26  CA        -3.0610  -39.8810   19.1850 C.3    68  LYS68       0.1561
     27  C         -4.5600  -40.0130   19.3610 C.2    68  LYS68       0.2260
     28  O         -5.2310  -39.0250   19.6630 O.2    68  LYS68      -0.2867
     29  CB        -2.3500  -40.0100   20.5270 C.3    68  LYS68       0.0271
     30  CG        -0.8480  -39.7960   20.4300 C.3    68  LYS68       0.0035
     31  CD        -0.2270  -40.8720   19.5550 C.3    68  LYS68       0.0206
     32  CE         1.1470  -40.4740   19.0690 C.3    68  LYS68       0.1093
     33  NZ         1.3000  -40.8690   17.6320 N.3    68  LYS68      -0.1314
     34  N         -5.0330  -41.0310   24.9550 N.3    71  VAL71      -0.1245
     35  CA        -3.8720  -40.6970   25.7680 C.3    71  VAL71       0.1561
     36  C         -4.1860  -40.9230   27.2350 C.2    71  VAL71       0.2260
     37  O         -5.3270  -40.7980   27.6590 O.2    71  VAL71      -0.2867
     38  CB        -3.4200  -39.2440   25.5470 C.3    71  VAL71       0.0252
     39  CG1       -2.2780  -38.9270   26.4800 C.3    71  VAL71       0.0019
     40  CG2       -2.9550  -39.0550   24.0960 C.3    71  VAL71       0.0019
     41  N          3.5610  -44.4710   22.2440 N.3   131  VAL131     -0.1245
     42  CA         4.5250  -43.4610   22.6590 C.3   131  VAL131      0.1561
     43  C          4.4340  -43.1150   24.1400 C.2   131  VAL131      0.2260
     44  O          3.3670  -42.7540   24.6390 O.2   131  VAL131     -0.2867
     45  CB         4.3400  -42.1880   21.8370 C.3   131  VAL131      0.0252
     46  CG1        5.0280  -41.0220   22.5070 C.3   131  VAL131      0.0019
     47  CG2        4.9000  -42.4120   20.4640 C.3   131  VAL131      0.0019
     48  N          6.0600  -40.7600   27.2350 N.3   133  TYR133     -0.1241
     49  CA         6.8220  -39.5670   27.5740 C.3   133  TYR133      0.1605
     50  C          7.0420  -39.4970   29.0930 C.2   133  TYR133      0.2264
     51  O          6.0890  -39.4280   29.8800 O.2   133  TYR133     -0.2867
     52  CB         6.0820  -38.3170   27.0740 C.3   133  TYR133      0.0534
     53  CG         6.6830  -37.0160   27.5720 C.ar  133  TYR133     -0.0201
     54  CD1        5.9930  -36.2160   28.4860 C.ar  133  TYR133     -0.0009
     55  CD2        7.9590  -36.6150   27.1790 C.ar  133  TYR133     -0.0009
     56  CE1        6.5580  -35.0600   28.9990 C.ar  133  TYR133      0.0417
     57  CE2        8.5320  -35.4590   27.6900 C.ar  133  TYR133      0.0417
     58  CZ         7.8280  -34.6880   28.6000 C.ar  133  TYR133      0.1957
     59  OH         8.3940  -33.5600   29.1330 O.3   133  TYR133     -0.2866
     60  N          3.3940  -40.2070   30.4480 N.3   140  TYR140     -0.1227
     61  CA         2.3070  -39.9190   29.5280 C.3   140  TYR140      0.1736
     62  C          2.3570  -40.9700   28.4200 C.2   140  TYR140      0.2595
     63  O          3.3720  -41.1370   27.7490 O.2   140  TYR140     -0.2718
     64  CB         2.4250  -38.5030   28.9790 C.3   140  TYR140      0.0548
     65  CG         2.1570  -37.4520   30.0290 C.ar  140  TYR140     -0.0200
     66  CD1        3.1900  -36.9190   30.7820 C.ar  140  TYR140     -0.0009
     67  CD2        0.8660  -37.0300   30.3020 C.ar  140  TYR140     -0.0009
     68  CE1        2.9470  -35.9970   31.7860 C.ar  140  TYR140      0.0417
     69  CE2        0.6110  -36.1090   31.2920 C.ar  140  TYR140      0.0417
     70  CZ         1.6570  -35.5940   32.0410 C.ar  140  TYR140      0.1957
     71  OH         1.4330  -34.6900   33.0630 O.3   140  TYR140     -0.2866
     72  N          1.2590  -41.7000   28.2550 N.am  141  VAL141     -0.1966
     73  CA         1.1890  -42.7770   27.2800 C.3   141  VAL141      0.1727
     74  C          0.0890  -42.5660   26.2800 C.2   141  VAL141      0.2616
     75  O         -1.0690  -42.6110   26.6350 O.2   141  VAL141     -0.2715
     76  CB         0.9190  -44.0990   27.9850 C.3   141  VAL141      0.0290
     77  CG1        1.1350  -45.2660   27.0300 C.3   141  VAL141      0.0023
     78  CG2        1.7950  -44.1840   29.2420 C.3   141  VAL141      0.0023
     79  N          0.4510  -42.3430   25.0260 N.am  142  GLY142     -0.1955
     80  CA        -0.5590  -42.1440   24.0010 C.3   142  GLY142      0.1869
     81  C         -0.4480  -43.2150   22.9350 C.2   142  GLY142      0.2309
     82  O          0.6320  -43.7610   22.7010 O.2   142  GLY142     -0.2863
     83  N         -4.8410  -32.8150   29.4390 N.3   179  PHE179     -0.1241
     84  CA        -3.7680  -32.6650   30.4010 C.3   179  PHE179      0.1605
     85  C         -3.2750  -31.2420   30.5590 C.2   179  PHE179      0.2264
     86  O         -2.8820  -30.6020   29.5860 O.2   179  PHE179     -0.2867
     87  CB        -2.5890  -33.5420   30.0050 C.3   179  PHE179      0.0534
     88  CG        -2.9200  -34.9900   29.9210 C.ar  179  PHE179     -0.0203
     89  CD1       -3.9590  -35.5210   30.6800 C.ar  179  PHE179     -0.0042
     90  CD2       -2.1710  -35.8410   29.1150 C.ar  179  PHE179     -0.0042
     91  CE1       -4.2450  -36.8760   30.6380 C.ar  179  PHE179     -0.0003
     92  CE2       -2.4500  -37.1990   29.0690 C.ar  179  PHE179     -0.0003
     93  CZ        -3.4870  -37.7170   29.8310 C.ar  179  PHE179     -0.0000
     94  N         -0.4840  -29.3580   31.4700 N.3   181  TRP181     -0.1241
     95  CA         0.9550  -29.5230   31.6400 C.3   181  TRP181      0.1605
     96  C          1.7040  -28.2600   31.1850 C.2   181  TRP181      0.2264
     97  O          1.5080  -27.7760   30.0630 O.2   181  TRP181     -0.2867
     98  CB         1.3970  -30.7570   30.8280 C.3   181  TRP181      0.0550
     99  CG         2.8840  -31.0750   30.7740 C.ar  181  TRP181      0.0003
    100  CD1        3.6270  -31.7500   31.7080 C.ar  181  TRP181      0.0946
    101  CD2        3.7690  -30.8080   29.6780 C.ar  181  TRP181      0.0152
    102  NE1        4.9160  -31.9270   31.2540 N.ar  181  TRP181     -0.2442
    103  CE2        5.0280  -31.3590   30.0120 C.ar  181  TRP181      0.0810
    104  CE3        3.6180  -30.1580   28.4460 C.ar  181  TRP181      0.0012
    105  CZ2        6.1300  -31.2800   29.1530 C.ar  181  TRP181      0.0191
    106  CZ3        4.7100  -30.0780   27.5960 C.ar  181  TRP181      0.0001
    107  CH2        5.9520  -30.6370   27.9530 C.ar  181  TRP181      0.0015
    108  N         -3.6110  -30.1940   26.9280 N.3   186  LEU186     -0.1231
    109  CA        -3.4810  -31.2460   25.9270 C.3   186  LEU186      0.1693
    110  C         -4.6550  -32.1910   25.7130 C.2   186  LEU186      0.2592
    111  O         -5.1320  -32.8550   26.6410 O.2   186  LEU186     -0.2718
    112  CB        -2.2440  -32.0980   26.2300 C.3   186  LEU186      0.0284
    113  CG        -0.8670  -31.4380   26.2110 C.3   186  LEU186      0.0019
    114  CD1       -0.7060  -30.6410   24.9260 C.3   186  LEU186      0.0001
    115  CD2       -0.7160  -30.5310   27.4070 C.3   186  LEU186      0.0001
    116  N         -5.0980  -32.2660   24.4660 N.am  187  HIS187     -0.1962
    117  CA        -6.1830  -33.1580   24.0730 C.3   187  HIS187      0.1772
    118  C         -5.5310  -34.1140   23.1040 C.2   187  HIS187      0.2462
    119  O         -4.5230  -33.7890   22.4880 O.2   187  HIS187     -0.2730
    120  CB        -7.2940  -32.3950   23.3540 C.3   187  HIS187      0.0785
    121  CG        -8.0960  -31.5030   24.2460 C.ar  187  HIS187      0.0821
    122  ND1       -9.1960  -31.9460   24.9480 N.ar  187  HIS187     -0.2267
    123  CD2       -7.9610  -30.1900   24.5470 C.ar  187  HIS187      0.1154
    124  CE1       -9.7070  -30.9420   25.6400 C.ar  187  HIS187      0.1986
    125  NE2       -8.9760  -29.8650   25.4150 N.ar  187  HIS187     -0.2212
    126  N         -6.0940  -35.3050   22.9390 N.am  188  PRO188     -0.2727
    127  CA        -5.4650  -36.2370   22.0030 C.3   188  PRO188      0.1402
    128  C         -5.5120  -35.7810   20.5400 C.2   188  PRO188      0.2269
    129  O         -4.8460  -36.3640   19.6910 O.2   188  PRO188     -0.2865
    130  CB        -6.2560  -37.5240   22.2250 C.3   188  PRO188      0.0296
    131  CG        -6.7740  -37.3790   23.6220 C.3   188  PRO188      0.0237
    132  CD        -7.1950  -35.9510   23.6650 C.3   188  PRO188      0.0939
    133  N         -2.2730  -30.5540   15.8790 N.3   269  TYR269     -0.1241
    134  CA        -0.9970  -31.2530   16.0380 C.3   269  TYR269      0.1605
    135  C         -0.2200  -31.4360   14.7470 C.2   269  TYR269      0.2264
    136  O         -0.7010  -31.0990   13.6640 O.2   269  TYR269     -0.2867
    137  CB        -1.1900  -32.6100   16.7050 C.3   269  TYR269      0.0534
    138  CG        -1.4480  -32.5090   18.1800 C.ar  269  TYR269     -0.0201
    139  CD1       -0.6250  -31.7410   18.9940 C.ar  269  TYR269     -0.0009
    140  CD2       -2.5310  -33.1580   18.7660 C.ar  269  TYR269     -0.0009
    141  CE1       -0.8790  -31.6150   20.3630 C.ar  269  TYR269      0.0417
    142  CE2       -2.7940  -33.0370   20.1330 C.ar  269  TYR269      0.0417
    143  CZ        -1.9630  -32.2640   20.9210 C.ar  269  TYR269      0.1957
    144  OH        -2.2200  -32.1500   22.2630 O.3   269  TYR269     -0.2866
@<TRIPOS>BOND
     1   136   135    2
     2   135   134    1
     3    21    20    1
     4    21    22    1
     5    23    22    1
     6    23    24    1
     7   133   134    1
     8   134   137    1
     9    20    17    1
    10    17    18    1
    11    17    16    1
    12   137   138    1
    13    11    10    2
    14    18    19    2
    15    33    32    1
    16    16    10   am
    17    10     9    1
    18   138   140   ar
    19   138   139   ar
    20    25    26    1
    21     8     9    1
    22   140   142   ar
    23   139   141   ar
    24     9    12    1
    25    32    31    1
    26    26    27    1
    27    26    29    1
    28    27    28    2
    29    31    30    1
    30   129   128    2
    31   142   143   ar
    32    12    13    1
    33   141   143   ar
    34    30    29    1
    35    47    45    1
    36   128   127    1
    37   143   144    1
    38    13    15    1
    39    13    14    1
    40    45    46    1
    41    45    42    1
    42   127   130    1
    43   127   126    1
    44   130   131    1
    45    41    42    1
    46   119   118    2
    47    42    43    1
    48    82    81    2
    49    81    80    1
    50   126   118   am
    51   126   132    1
    52   118   117    1
    53   120   117    1
    54   120   121    1
    55   131   132    1
    56    80    79    1
    57   117   116    1
    58     3     2    1
    59     3     4    2
    60    40    38    1
    61    43    44    2
    62     5     2    1
    63     5     6    1
    64   121   123   ar
    65   121   122   ar
    66     2     1    1
    67   116   110   am
    68   123   125   ar
    69   114   113    1
    70   122   124   ar
    71    34    35    1
    72    79    74   am
    73     6     7    1
    74   125   124   ar
    75    38    35    1
    76    38    39    1
    77     1     7    1
    78   110   109    1
    79   110   111    2
    80    35    36    1
    81   109   112    1
    82   109   108    1
    83   113   112    1
    84   113   115    1
    85    74    75    2
    86    74    73    1
    87    77    76    1
    88    52    53    1
    89    52    49    1
    90    55    53   ar
    91    55    57   ar
    92    48    49    1
    93    36    37    2
    94    73    76    1
    95    73    72    1
    96    53    54   ar
    97    49    50    1
    98   106   107   ar
    99   106   104   ar
   100    57    58   ar
   101    63    62    2
   102   107   105   ar
   103    76    78    1
   104    72    62   am
   105    62    61    1
   106   104   101   ar
   107    54    56   ar
   108    58    56   ar
   109    58    59    1
   110    64    61    1
   111    64    65    1
   112    92    90   ar
   113    92    93   ar
   114    50    51    2
   115    90    88   ar
   116   105   103   ar
   117    83    84    1
   118    61    60    1
   119    86    85    2
   120   101   103   ar
   121   101    99   ar
   122    93    91   ar
   123    88    87    1
   124    88    89   ar
   125    87    84    1
   126   103   102   ar
   127    65    67   ar
   128    65    66   ar
   129    97    96    2
   130    67    69   ar
   131    84    85    1
   132    91    89   ar
   133    99    98    1
   134    99   100   ar
   135    66    68   ar
   136    98    95    1
   137    96    95    1
   138   102   100   ar
   139    69    70   ar
   140    94    95    1
   141    68    70   ar
   142    70    71    1
