@<TRIPOS>MOLECULE
tmp/1c0uA00.pdb
 152 151 0 0 0
SMALL
GASTEIGER

@<TRIPOS>ATOM
      1  N          6.5800  -29.7970   25.4300 N.3    95  PRO95      -0.2116
      2  CA         6.0220  -29.8170   24.0710 C.3    95  PRO95       0.1372
      3  C          5.1770  -28.5830   23.8250 C.2    95  PRO95       0.2244
      4  O          4.7430  -27.9410   24.7660 O.2    95  PRO95      -0.2868
      5  CB         5.1870  -31.0900   24.0540 C.3    95  PRO95       0.0268
      6  CG         5.8740  -31.9680   25.0880 C.3    95  PRO95       0.0207
      7  CD         6.1770  -30.9920   26.1910 C.3    95  PRO95       0.0892
      8  N          2.0550  -30.8710   18.2190 N.3   100  LEU100     -0.1231
      9  CA         1.3640  -32.1050   18.5430 C.3   100  LEU100      0.1693
     10  C          0.6390  -32.6000   17.2900 C.2   100  LEU100      0.2591
     11  O          0.3750  -31.8340   16.3660 O.2   100  LEU100     -0.2718
     12  CB         0.3390  -31.8860   19.6650 C.3   100  LEU100      0.0284
     13  CG         0.8340  -31.5160   21.0740 C.3   100  LEU100      0.0019
     14  CD1       -0.3620  -31.5040   22.0380 C.3   100  LEU100      0.0001
     15  CD2        1.9000  -32.5000   21.5600 C.3   100  LEU100      0.0001
     16  N          0.3400  -33.8910   17.2520 N.am  101  LYS101     -0.1980
     17  CA        -0.3810  -34.4570   16.1270 C.3   101  LYS101      0.1596
     18  C         -1.7570  -34.8380   16.6480 C.2   101  LYS101      0.2287
     19  O         -1.8810  -35.2730   17.7970 O.2   101  LYS101     -0.2864
     20  CB         0.3750  -35.6670   15.5740 C.3   101  LYS101      0.0298
     21  CG         1.4490  -35.2730   14.5630 C.3   101  LYS101      0.0038
     22  CD         2.4750  -36.3630   14.3550 C.3   101  LYS101      0.0206
     23  CE         3.4320  -36.4260   15.5230 C.3   101  LYS101      0.1093
     24  NZ         4.1780  -35.1470   15.6780 N.3   101  LYS101     -0.1314
     25  N         -5.0450  -36.5550   17.8160 N.3   103  LYS103     -0.1245
     26  CA        -5.2710  -37.8630   18.3930 C.3   103  LYS103      0.1561
     27  C         -6.7700  -38.1280   18.4180 C.2   103  LYS103      0.2260
     28  O         -7.5690  -37.1900   18.4080 O.2   103  LYS103     -0.2867
     29  CB        -4.6890  -37.8980   19.8020 C.3   103  LYS103      0.0271
     30  CG        -3.1930  -37.7190   19.8080 C.3   103  LYS103      0.0035
     31  CD        -2.4920  -38.9890   19.3640 C.3   103  LYS103      0.0206
     32  CE        -1.1460  -38.6970   18.7120 C.3   103  LYS103      0.1093
     33  NZ        -1.3400  -38.2200   17.3170 N.3   103  LYS103     -0.1314
     34  N         -7.3900  -38.7180   24.1940 N.3   106  VAL106     -0.1245
     35  CA        -6.2770  -38.4090   25.0750 C.3   106  VAL106      0.1561
     36  C         -6.6930  -38.6320   26.5210 C.2   106  VAL106      0.2260
     37  O         -7.8150  -38.3330   26.8990 O.2   106  VAL106     -0.2867
     38  CB        -5.8460  -36.9340   24.9240 C.3   106  VAL106      0.0252
     39  CG1       -4.6480  -36.6680   25.8110 C.3   106  VAL106      0.0019
     40  CG2       -5.5330  -36.6130   23.4510 C.3   106  VAL106      0.0019
     41  N          1.0810  -42.9050   21.9940 N.3   179  VAL179     -0.1231
     42  CA         2.0750  -41.9000   22.3810 C.3   179  VAL179      0.1692
     43  C          1.9520  -41.4660   23.8510 C.2   179  VAL179      0.2592
     44  O          0.9040  -40.9790   24.2760 O.2   179  VAL179     -0.2718
     45  CB         1.9320  -40.6650   21.4780 C.3   179  VAL179      0.0266
     46  CG1        3.1280  -39.7570   21.6210 C.3   179  VAL179      0.0020
     47  CG2        1.7690  -41.1170   20.0390 C.3   179  VAL179      0.0020
     48  N          3.0310  -41.6250   24.6170 N.am  180  ILE180     -0.1966
     49  CA         3.0200  -41.2720   26.0330 C.3   180  ILE180      0.1727
     50  C          3.9610  -40.1290   26.4390 C.2   180  ILE180      0.2616
     51  O          5.1140  -40.0820   26.0250 O.2   180  ILE180     -0.2715
     52  CB         3.3440  -42.5170   26.8710 C.3   180  ILE180      0.0290
     53  CG1        2.2330  -43.5590   26.6600 C.3   180  ILE180      0.0022
     54  CG2        3.5380  -42.1320   28.3550 C.3   180  ILE180      0.0023
     55  CD1        2.4780  -44.8630   27.3620 C.3   180  ILE180      0.0001
     56  N          3.4560  -39.2050   27.2510 N.am  181  TYR181     -0.1974
     57  CA         4.2530  -38.0850   27.7190 C.3   181  TYR181      0.1639
     58  C          4.3080  -37.9680   29.2510 C.2   181  TYR181      0.2290
     59  O          3.2690  -37.8020   29.9230 O.2   181  TYR181     -0.2864
     60  CB         3.7180  -36.7610   27.1870 C.3   181  TYR181      0.0560
     61  CG         4.5000  -35.5580   27.7180 C.ar  181  TYR181     -0.0198
     62  CD1        3.8710  -34.3350   27.9530 C.ar  181  TYR181     -0.0009
     63  CD2        5.8770  -35.6500   27.9830 C.ar  181  TYR181     -0.0009
     64  CE1        4.5920  -33.2390   28.4400 C.ar  181  TYR181      0.0417
     65  CE2        6.5970  -34.5670   28.4640 C.ar  181  TYR181      0.0417
     66  CZ         5.9520  -33.3670   28.6920 C.ar  181  TYR181      0.1957
     67  OH         6.6630  -32.2970   29.1770 O.3   181  TYR181     -0.2866
     68  N          0.6440  -38.2960   30.1800 N.3   188  TYR188     -0.1227
     69  CA        -0.4160  -37.9360   29.2640 C.3   188  TYR188      0.1736
     70  C         -0.3350  -38.9310   28.1260 C.2   188  TYR188      0.2595
     71  O          0.7000  -39.0570   27.4770 O.2   188  TYR188     -0.2718
     72  CB        -0.2410  -36.5090   28.7550 C.3   188  TYR188      0.0548
     73  CG        -0.4430  -35.4190   29.8000 C.ar  188  TYR188     -0.0200
     74  CD1        0.5840  -35.0500   30.6610 C.ar  188  TYR188     -0.0009
     75  CD2       -1.6450  -34.7210   29.8830 C.ar  188  TYR188     -0.0009
     76  CE1        0.4210  -34.0070   31.5710 C.ar  188  TYR188      0.0417
     77  CE2       -1.8180  -33.6850   30.7790 C.ar  188  TYR188      0.0417
     78  CZ        -0.7820  -33.3280   31.6210 C.ar  188  TYR188      0.1957
     79  OH        -0.9400  -32.2730   32.4920 O.3   188  TYR188     -0.2866
     80  N         -1.4280  -39.6590   27.9070 N.am  189  VAL189     -0.1966
     81  CA        -1.4930  -40.6850   26.8680 C.3   189  VAL189      0.1727
     82  C         -2.4840  -40.3640   25.7560 C.2   189  VAL189      0.2616
     83  O         -3.6090  -39.9400   26.0070 O.2   189  VAL189     -0.2715
     84  CB        -1.9080  -42.0310   27.4560 C.3   189  VAL189      0.0290
     85  CG1       -1.6770  -43.1150   26.4320 C.3   189  VAL189      0.0023
     86  CG2       -1.1730  -42.2960   28.7730 C.3   189  VAL189      0.0023
     87  N         -2.0640  -40.5930   24.5240 N.am  190  GLY190     -0.1955
     88  CA        -2.9320  -40.3230   23.3990 C.3   190  GLY190      0.1869
     89  C         -2.8000  -41.4030   22.3510 C.2   190  GLY190      0.2309
     90  O         -1.7950  -42.1090   22.3070 O.2   190  GLY190     -0.2863
     91  N         -7.1830  -30.2560   28.2370 N.3   227  PHE227     -0.1241
     92  CA        -6.1620  -30.0740   29.2550 C.3   227  PHE227      0.1605
     93  C         -5.5560  -28.6780   29.2480 C.2   227  PHE227      0.2264
     94  O         -5.3460  -28.0830   28.1880 O.2   227  PHE227     -0.2867
     95  CB        -5.0570  -31.1090   29.0830 C.3   227  PHE227      0.0534
     96  CG        -5.5290  -32.5210   29.2130 C.ar  227  PHE227     -0.0203
     97  CD1       -6.5450  -32.8490   30.1060 C.ar  227  PHE227     -0.0042
     98  CD2       -4.9250  -33.5400   28.4710 C.ar  227  PHE227     -0.0042
     99  CE1       -6.9540  -34.1810   30.2610 C.ar  227  PHE227     -0.0003
    100  CE2       -5.3260  -34.8780   28.6170 C.ar  227  PHE227     -0.0003
    101  CZ        -6.3390  -35.1980   29.5120 C.ar  227  PHE227     -0.0000
    102  N         -2.7030  -26.6970   29.2190 N.3   229  TRP229     -0.1241
    103  CA        -1.2910  -26.8050   28.9420 C.3   229  TRP229      0.1605
    104  C         -0.7030  -25.4370   28.6280 C.2   229  TRP229      0.2264
    105  O         -0.8970  -24.9000   27.5310 O.2   229  TRP229     -0.2867
    106  CB        -1.0800  -27.7530   27.7710 C.3   229  TRP229      0.0550
    107  CG         0.3190  -28.1750   27.6330 C.ar  229  TRP229      0.0003
    108  CD1        1.1610  -27.9020   26.6000 C.ar  229  TRP229      0.0946
    109  CD2        1.0580  -28.9550   28.5650 C.ar  229  TRP229      0.0152
    110  NE1        2.3830  -28.4690   26.8290 N.ar  229  TRP229     -0.2442
    111  CE2        2.3500  -29.1230   28.0310 C.ar  229  TRP229      0.0810
    112  CE3        0.7550  -29.5280   29.8030 C.ar  229  TRP229      0.0012
    113  CZ2        3.3410  -29.8430   28.6870 C.ar  229  TRP229      0.0191
    114  CZ3        1.7380  -30.2440   30.4600 C.ar  229  TRP229      0.0001
    115  CH2        3.0200  -30.3980   29.9000 C.ar  229  TRP229      0.0015
    116  N         -6.0660  -28.0410   25.6110 N.3   234  LEU234     -0.1231
    117  CA        -5.8350  -29.1150   24.6610 C.3   234  LEU234      0.1693
    118  C         -6.9670  -30.1240   24.4400 C.2   234  LEU234      0.2592
    119  O         -7.2640  -30.9430   25.3040 O.2   234  LEU234     -0.2718
    120  CB        -4.5540  -29.8560   25.0540 C.3   234  LEU234      0.0284
    121  CG        -3.2400  -29.4060   24.4080 C.3   234  LEU234      0.0019
    122  CD1       -3.2230  -27.9090   24.1540 C.3   234  LEU234      0.0001
    123  CD2       -2.0960  -29.8130   25.3110 C.3   234  LEU234      0.0001
    124  N         -7.5900  -30.0480   23.2670 N.am  235  HIS235     -0.1962
    125  CA        -8.6480  -30.9750   22.8770 C.3   235  HIS235      0.1772
    126  C         -7.9260  -31.9370   21.9380 C.2   235  HIS235      0.2462
    127  O         -7.1360  -31.5080   21.1020 O.2   235  HIS235     -0.2730
    128  CB        -9.7570  -30.2550   22.1050 C.3   235  HIS235      0.0785
    129  CG       -10.4400  -29.1720   22.8790 C.ar  235  HIS235      0.0821
    130  ND1      -11.4500  -29.4230   23.7810 N.ar  235  HIS235     -0.2267
    131  CD2      -10.2480  -27.8320   22.8940 C.ar  235  HIS235      0.1154
    132  CE1      -11.8510  -28.2860   24.3190 C.ar  235  HIS235      0.1986
    133  NE2      -11.1370  -27.3050   23.7970 N.ar  235  HIS235     -0.2212
    134  N         -8.1900  -33.2460   22.0540 N.am  236  PRO236     -0.2727
    135  CA        -7.5430  -34.2510   21.2050 C.3   236  PRO236      0.1402
    136  C         -7.4780  -33.9670   19.7010 C.2   236  PRO236      0.2269
    137  O         -6.6220  -34.5160   19.0030 O.2   236  PRO236     -0.2865
    138  CB        -8.3180  -35.5290   21.5330 C.3   236  PRO236      0.0296
    139  CG        -9.6530  -35.0190   21.9610 C.3   236  PRO236      0.0237
    140  CD        -9.2750  -33.8580   22.8340 C.3   236  PRO236      0.0939
    141  N         -3.7990  -29.0930   14.9980 N.3   317  TYR317     -0.1241
    142  CA        -2.5410  -29.7750   15.2760 C.3   317  TYR317      0.1605
    143  C         -1.7550  -30.0210   13.9990 C.2   317  TYR317      0.2264
    144  O         -2.2420  -29.7910   12.8890 O.2   317  TYR317     -0.2867
    145  CB        -2.7920  -31.0880   16.0170 C.3   317  TYR317      0.0534
    146  CG        -3.2310  -30.8680   17.4410 C.ar  317  TYR317     -0.0201
    147  CD1       -2.4190  -30.1900   18.3400 C.ar  317  TYR317     -0.0009
    148  CD2       -4.4690  -31.3020   17.8830 C.ar  317  TYR317     -0.0009
    149  CE1       -2.8310  -29.9480   19.6390 C.ar  317  TYR317      0.0417
    150  CE2       -4.8920  -31.0630   19.1840 C.ar  317  TYR317      0.0417
    151  CZ        -4.0680  -30.3880   20.0610 C.ar  317  TYR317      0.1957
    152  OH        -4.4700  -30.1970   21.3770 O.3   317  TYR317     -0.2866
@<TRIPOS>BOND
     1   144   143    2
     2   143   142    1
     3    22    21    1
     4    22    23    1
     5    21    20    1
     6   141   142    1
     7   142   145    1
     8    23    24    1
     9    20    17    1
    10   145   146    1
    11    17    18    1
    12    17    16    1
    13    11    10    2
    14    18    19    2
    15    16    10   am
    16    10     9    1
    17    33    32    1
    18   146   148   ar
    19   146   147   ar
    20    25    26    1
    21   148   150   ar
    22     8     9    1
    23   147   149   ar
    24    26    27    1
    25    26    29    1
    26    28    27    2
    27     9    12    1
    28    32    31    1
    29   137   136    2
    30   150   151   ar
    31    31    30    1
    32   149   151   ar
    33    12    13    1
    34   136   135    1
    35    29    30    1
    36    47    45    1
    37   151   152    1
    38    13    15    1
    39    13    14    1
    40   127   126    2
    41   135   138    1
    42   135   134    1
    43    45    46    1
    44    45    42    1
    45   138   139    1
    46   126   134   am
    47   126   125    1
    48   139   140    1
    49    41    42    1
    50   134   140    1
    51   128   125    1
    52   128   129    1
    53    90    89    2
    54    89    88    1
    55    42    43    1
    56   125   124    1
    57   129   131   ar
    58   129   130   ar
    59   131   133   ar
    60   124   118   am
    61    88    87    1
    62    40    38    1
    63   130   132   ar
    64   133   132   ar
    65     3     2    1
    66     3     4    2
    67    43    44    2
    68    43    48   am
    69     5     2    1
    70     5     6    1
    71     2     1    1
    72   122   121    1
    73    34    35    1
    74   121   120    1
    75   121   123    1
    76   118   117    1
    77   118   119    2
    78    87    82   am
    79    48    49    1
    80   117   120    1
    81   117   116    1
    82    38    35    1
    83    38    39    1
    84    35    36    1
    85     6     7    1
    86     1     7    1
    87    82    83    2
    88    82    81    1
    89    51    50    2
    90    49    50    1
    91    49    52    1
    92    85    84    1
    93    50    56   am
    94    36    37    2
    95   108   110   ar
    96   108   107   ar
    97    53    52    1
    98    53    55    1
    99   110   111   ar
   100    81    84    1
   101    81    80    1
   102    52    54    1
   103    60    61    1
   104    60    57    1
   105    56    57    1
   106    84    86    1
   107    71    70    2
   108   105   104    2
   109   107   106    1
   110   107   109   ar
   111    61    62   ar
   112    61    63   ar
   113    57    58    1
   114   106   103    1
   115    80    70   am
   116    62    64   ar
   117    63    65   ar
   118   111   109   ar
   119   111   113   ar
   120    70    69    1
   121    94    93    2
   122    91    92    1
   123    64    66   ar
   124    65    66   ar
   125    98   100   ar
   126    98    96   ar
   127   109   112   ar
   128   100   101   ar
   129   104   103    1
   130   113   115   ar
   131    66    67    1
   132    72    69    1
   133    72    73    1
   134   103   102    1
   135    95    96    1
   136    95    92    1
   137    96    97   ar
   138    93    92    1
   139    58    59    2
   140    69    68    1
   141   101    99   ar
   142    73    75   ar
   143    73    74   ar
   144   112   114   ar
   145    75    77   ar
   146   115   114   ar
   147    97    99   ar
   148    74    76   ar
   149    77    78   ar
   150    76    78   ar
   151    78    79    1
