@<TRIPOS>MOLECULE
tmp/1c12B00.pdb
 104 100 0 0 0
SMALL
GASTEIGER

@<TRIPOS>ATOM
      1  N         24.1890   57.1380  -13.7380 N.3    34  ALA34      -0.1245
      2  CA        25.4140   56.6470  -13.0860 C.3    34  ALA34       0.1562
      3  C         25.1560   56.2370  -11.6420 C.2    34  ALA34       0.2260
      4  O         24.4140   56.9070  -10.9250 O.2    34  ALA34      -0.2867
      5  CB        26.4950   57.7200  -13.1140 C.3    34  ALA34       0.0290
      6  N         27.0900   55.7690   -8.2910 N.3    36  ASN36      -0.1240
      7  CA        28.3010   56.1890   -7.5910 C.3    36  ASN36       0.1653
      8  C         28.6850   55.5540   -6.2620 C.2    36  ASN36       0.2266
      9  O         27.8750   54.9110   -5.5920 O.2    36  ASN36      -0.2867
     10  CB        28.2410   57.7140   -7.3990 C.3    36  ASN36       0.1155
     11  CG        27.9100   58.4500   -8.6860 C.2    36  ASN36       0.2627
     12  OD1       28.7990   58.9310   -9.3850 O.2    36  ASN36      -0.2716
     13  ND2       26.6260   58.5290   -9.0090 N.am   36  ASN36      -0.0877
     14  N         30.8430   56.9860   -2.8500 N.3    38  ILE38      -0.1245
     15  CA        31.5030   58.0960   -2.1770 C.3    38  ILE38       0.1561
     16  C         31.7490   57.6940   -0.7240 C.2    38  ILE38       0.2260
     17  O         31.0440   56.8530   -0.1780 O.2    38  ILE38      -0.2867
     18  CB        30.6650   59.4220   -2.2190 C.3    38  ILE38       0.0252
     19  CG1       29.6160   59.4410   -1.1010 C.3    38  ILE38       0.0019
     20  CG2       30.0010   59.6070   -3.5920 C.3    38  ILE38       0.0019
     21  CD1       29.1380   60.8110   -0.7450 C.3    38  ILE38       0.0001
     22  N         34.6540   61.6090   -3.5350 N.3    48  TRP48      -0.1241
     23  CA        33.9900   60.8750   -4.5920 C.3    48  TRP48       0.1605
     24  C         34.9950   59.8510   -5.1030 C.2    48  TRP48       0.2264
     25  O         36.1090   60.2120   -5.4880 O.2    48  TRP48      -0.2867
     26  CB        33.5640   61.8370   -5.7110 C.3    48  TRP48       0.0550
     27  CG        32.9810   61.1540   -6.9030 C.ar   48  TRP48       0.0003
     28  CD1       31.7210   60.6340   -7.0210 C.ar   48  TRP48       0.0946
     29  CD2       33.6480   60.8800   -8.1410 C.ar   48  TRP48       0.0152
     30  NE1       31.5730   60.0360   -8.2570 N.ar   48  TRP48      -0.2442
     31  CE2       32.7420   60.1720   -8.9580 C.ar   48  TRP48       0.0810
     32  CE3       34.9310   61.1480   -8.6280 C.ar   48  TRP48       0.0012
     33  CZ2       33.0770   59.7430  -10.2470 C.ar   48  TRP48       0.0191
     34  CZ3       35.2640   60.7170   -9.9200 C.ar   48  TRP48       0.0001
     35  CH2       34.3400   60.0160  -10.7040 C.ar   48  TRP48       0.0015
     36  N         32.1720   55.8190  -10.4450 N.3    51  TYR51      -0.1241
     37  CA        30.8510   55.3530  -10.8410 C.3    51  TYR51       0.1605
     38  C         30.8320   54.3710  -12.0050 C.2    51  TYR51       0.2264
     39  O         31.8300   54.1770  -12.6970 O.2    51  TYR51      -0.2867
     40  CB        29.8700   56.5300  -11.0870 C.3    51  TYR51       0.0534
     41  CG        30.0310   57.3650  -12.3620 C.ar   51  TYR51      -0.0201
     42  CD1       30.0340   58.7610  -12.2970 C.ar   51  TYR51      -0.0009
     43  CD2       30.1250   56.7720  -13.6270 C.ar   51  TYR51      -0.0009
     44  CE1       30.1310   59.5470  -13.4460 C.ar   51  TYR51       0.0417
     45  CE2       30.2270   57.5490  -14.7890 C.ar   51  TYR51       0.0417
     46  CZ        30.2270   58.9390  -14.6890 C.ar   51  TYR51       0.1957
     47  OH        30.3460   59.7160  -15.8200 O.3    51  TYR51      -0.2866
     48  N         25.5240   55.9610   -4.1840 N.3    97  VAL97      -0.1231
     49  CA        24.5460   57.0010   -4.4700 C.3    97  VAL97       0.1692
     50  C         24.3900   57.1640   -5.9730 C.2    97  VAL97       0.2593
     51  O         25.3220   56.9100   -6.7260 O.2    97  VAL97      -0.2718
     52  CB        24.9600   58.3480   -3.7650 C.3    97  VAL97       0.0266
     53  CG1       26.4580   58.5440   -3.8110 C.3    97  VAL97       0.0020
     54  CG2       24.2740   59.5350   -4.3810 C.3    97  VAL97       0.0020
     55  N         23.1940   57.5430   -6.4090 N.am   98  THR98      -0.1939
     56  CA        22.9240   57.7110   -7.8280 C.3    98  THR98       0.2028
     57  C         23.1060   59.1410   -8.3190 C.2    98  THR98       0.2643
     58  O         23.1810   60.0880   -7.5340 O.2    98  THR98      -0.2714
     59  CB        21.4700   57.3330   -8.1700 C.3    98  THR98       0.1808
     60  OG1       20.5910   58.3820   -7.7480 O.3    98  THR98      -0.2208
     61  CG2       21.0740   56.0620   -7.4730 C.3    98  THR98       0.0379
     62  N         23.1360   59.2800   -9.6410 N.am   99  SER99      -0.1935
     63  CA        23.2190   60.5890  -10.2650 C.3    99  SER99       0.2055
     64  C         21.7750   61.0930  -10.2100 C.2    99  SER99       0.2642
     65  O         20.9400   60.5210   -9.4920 O.2    99  SER99      -0.2714
     66  CB        23.6740   60.4470  -11.7150 C.3    99  SER99       0.2130
     67  OG        22.7070   59.7440  -12.4640 O.3    99  SER99      -0.2179
     68  N         21.4650   62.1450  -10.9600 N.am  100  LEU100     -0.1977
     69  CA        20.0990   62.6760  -10.9700 C.3   100  LEU100      0.1596
     70  C         19.1420   61.7910  -11.7700 C.2   100  LEU100      0.2287
     71  O         19.3320   61.5560  -12.9650 O.2   100  LEU100     -0.2864
     72  CB        20.0590   64.1230  -11.4890 C.3   100  LEU100      0.0297
     73  CG        20.4530   65.2510  -10.5330 C.3   100  LEU100      0.0022
     74  CD1       19.5990   65.2100   -9.2700 C.3   100  LEU100      0.0001
     75  CD2       21.9010   65.1420  -10.1740 C.3   100  LEU100      0.0001
     76  N         13.7290   66.1130  -10.8240 N.3   107  LYS107     -0.1245
     77  CA        14.7490   65.1000  -10.6410 C.3   107  LYS107      0.1561
     78  C         14.9320   64.8270   -9.1520 C.2   107  LYS107      0.2260
     79  O         14.4870   65.6070   -8.3000 O.2   107  LYS107     -0.2867
     80  CB        16.0660   65.5400  -11.2870 C.3   107  LYS107      0.0271
     81  CG        16.0250   65.5690  -12.8080 C.3   107  LYS107      0.0035
     82  CD        17.3850   65.9070  -13.3960 C.3   107  LYS107      0.0206
     83  CE        17.3470   65.8870  -14.9140 C.3   107  LYS107      0.1093
     84  NZ        18.6720   66.2060  -15.5110 N.3   107  LYS107     -0.1314
     85  N         17.7680   62.4110   -6.4250 N.3   109  SER109     -0.1217
     86  CA        18.9390   61.5560   -6.2980 C.3   109  SER109      0.1889
     87  C         18.7290   60.5900   -5.1440 C.2   109  SER109      0.2288
     88  O         18.1530   60.9450   -4.1080 O.2   109  SER109     -0.2866
     89  CB        20.1840   62.3880   -6.0570 C.3   109  SER109      0.2089
     90  OG        20.0840   63.0780   -4.8280 O.3   109  SER109     -0.2183
     91  N         20.2080   57.8690   -2.2490 N.3   111  TRP111     -0.1241
     92  CA        21.3340   57.5590   -1.3770 C.3   111  TRP111      0.1605
     93  C         21.0600   56.3010   -0.5690 C.2   111  TRP111      0.2264
     94  O         19.9130   55.9100   -0.3720 O.2   111  TRP111     -0.2867
     95  CB        21.5630   58.6960   -0.3750 C.3   111  TRP111      0.0550
     96  CG        21.9750   60.0040   -0.9600 C.ar  111  TRP111      0.0003
     97  CD1       21.1860   60.8880   -1.6470 C.ar  111  TRP111      0.0946
     98  CD2       23.2770   60.5990   -0.8820 C.ar  111  TRP111      0.0152
     99  NE1       21.9210   61.9960   -2.0020 N.ar  111  TRP111     -0.2442
    100  CE2       23.2030   61.8450   -1.5490 C.ar  111  TRP111      0.0810
    101  CE3       24.4940   60.1990   -0.3150 C.ar  111  TRP111      0.0012
    102  CZ2       24.3060   62.6950   -1.6580 C.ar  111  TRP111      0.0191
    103  CZ3       25.5900   61.0450   -0.4240 C.ar  111  TRP111      0.0001
    104  CH2       25.4870   62.2810   -1.0930 C.ar  111  TRP111      0.0015
@<TRIPOS>BOND
     1    47    46    1
     2    84    83    1
     3    83    82    1
     4    45    46   ar
     5    45    43   ar
     6    46    44   ar
     7     1     2    1
     8    43    41   ar
     9    44    42   ar
    10    82    81    1
    11     5     2    1
    12     2     3    1
    13    71    70    2
    14    81    80    1
    15    39    38    2
    16    67    66    1
    17    41    42   ar
    18    41    40    1
    19    38    37    1
    20    70    69    1
    21    66    63    1
    22     3     4    2
    23    72    69    1
    24    72    73    1
    25    80    77    1
    26    40    37    1
    27    69    68    1
    28    68    64   am
    29    37    36    1
    30    76    77    1
    31    35    33   ar
    32    35    34   ar
    33    77    78    1
    34    73    75    1
    35    73    74    1
    36    63    64    1
    37    63    62    1
    38    33    31   ar
    39    64    65    2
    40    34    32   ar
    41    62    57   am
    42    12    11    2
    43    78    79    2
    44    13    11   am
    45    31    30   ar
    46    31    29   ar
    47    11    10    1
    48    32    29   ar
    49    57    56    1
    50    57    58    2
    51     6     7    1
    52    30    28   ar
    53    59    56    1
    54    59    60    1
    55    59    61    1
    56    29    27   ar
    57    56    55    1
    58     7    10    1
    59     7     8    1
    60    28    27   ar
    61    27    26    1
    62    51    50    2
    63    85    86    1
    64    55    50   am
    65    86    89    1
    66    86    87    1
    67     8     9    2
    68    89    90    1
    69    50    49    1
    70    26    23    1
    71    25    24    2
    72    87    88    2
    73    24    23    1
    74    23    22    1
    75    49    48    1
    76    49    52    1
    77    54    52    1
    78    53    52    1
    79    20    18    1
    80    14    15    1
    81    91    92    1
    82    18    15    1
    83    18    19    1
    84    15    16    1
    85    99    97   ar
    86    99   100   ar
    87   102   100   ar
    88   102   104   ar
    89    97    96   ar
    90   100    98   ar
    91    92    93    1
    92    92    95    1
    93    19    21    1
    94   104   103   ar
    95    96    98   ar
    96    96    95    1
    97    98   101   ar
    98    16    17    2
    99    93    94    2
   100   103   101   ar
