@<TRIPOS>MOLECULE
tmp/1c12A00.pdb
 92 90 0 0 0
SMALL
GASTEIGER

@<TRIPOS>ATOM
      1  N         25.3130   70.9380   -6.7610 N.3    34  GLY34      -0.1210
      2  CA        24.1580   70.4700   -6.0290 C.3    34  GLY34       0.1956
      3  C         24.4140   70.7440   -4.5640 C.2    34  GLY34       0.2612
      4  O         25.5570   70.9560   -4.1570 O.2    34  GLY34      -0.2717
      5  N         23.3430   70.7920   -3.7820 N.am   35  TRP35      -0.1962
      6  CA        23.4530   71.0370   -2.3590 C.3    35  TRP35       0.1771
      7  C         22.8850   69.8300   -1.6530 C.2    35  TRP35       0.2619
      8  O         21.8150   69.3630   -1.9960 O.2    35  TRP35      -0.2715
      9  CB        22.7100   72.3240   -1.9770 C.3    35  TRP35       0.0590
     10  CG        23.4230   73.5650   -2.4300 C.ar   35  TRP35       0.0006
     11  CD1       23.2720   74.2100   -3.6210 C.ar   35  TRP35       0.0946
     12  CD2       24.3940   74.3140   -1.6930 C.ar   35  TRP35       0.0152
     13  NE1       24.0830   75.3190   -3.6730 N.ar   35  TRP35      -0.2442
     14  CE2       24.7850   75.4060   -2.4970 C.ar   35  TRP35       0.0810
     15  CE3       24.9710   74.1760   -0.4200 C.ar   35  TRP35       0.0012
     16  CZ2       25.7190   76.3540   -2.0760 C.ar   35  TRP35       0.0191
     17  CZ3       25.8960   75.1180   -0.0010 C.ar   35  TRP35       0.0001
     18  CH2       26.2620   76.1930   -0.8270 C.ar   35  TRP35       0.0015
     19  N         23.6440   69.3050   -0.6950 N.am   36  LEU36      -0.1977
     20  CA        23.2690   68.1160    0.0690 C.3    36  LEU36       0.1596
     21  C         23.0540   68.4440    1.5420 C.2    36  LEU36       0.2287
     22  O         23.7160   69.3180    2.1050 O.2    36  LEU36      -0.2864
     23  CB        24.3890   67.0650    0.0010 C.3    36  LEU36       0.0297
     24  CG        25.0870   66.6530   -1.2950 C.3    36  LEU36       0.0022
     25  CD1       25.7690   67.8460   -1.9190 C.3    36  LEU36       0.0001
     26  CD2       26.1390   65.5960   -0.9870 C.3    36  LEU36       0.0001
     27  N         19.5230   65.0270   -1.0660 N.3    46  GLY46      -0.1225
     28  CA        19.8270   66.0220   -2.0790 C.3    46  GLY46       0.1811
     29  C         18.8240   67.1590   -1.9940 C.2    46  GLY46       0.2280
     30  O         17.6160   66.9080   -1.9620 O.2    46  GLY46      -0.2866
     31  N         19.6970   70.8670   -7.4000 N.3    49  TYR49      -0.1241
     32  CA        20.5920   70.4460   -8.4730 C.3    49  TYR49       0.1605
     33  C         20.6590   71.5440   -9.5300 C.2    49  TYR49       0.2264
     34  O         19.7840   72.4070   -9.5950 O.2    49  TYR49      -0.2867
     35  CB        20.1390   69.1210   -9.0980 C.3    49  TYR49       0.0534
     36  CG        18.8140   69.1380   -9.8380 C.ar   49  TYR49      -0.0201
     37  CD1       18.7710   69.3260  -11.2250 C.ar   49  TYR49      -0.0009
     38  CD2       17.6070   68.9270   -9.1610 C.ar   49  TYR49      -0.0009
     39  CE1       17.5640   69.3030  -11.9220 C.ar   49  TYR49       0.0417
     40  CE2       16.3880   68.8990   -9.8480 C.ar   49  TYR49       0.0417
     41  CZ        16.3770   69.0880  -11.2290 C.ar   49  TYR49       0.1957
     42  OH        15.1880   69.0570  -11.9240 O.3    49  TYR49      -0.2866
     43  N         14.8010   69.4170   -5.6440 N.3    55  GLU55      -0.1245
     44  CA        14.5370   68.0060   -5.9170 C.3    55  GLU55       0.1567
     45  C         13.1490   67.6450   -5.4170 C.2    55  GLU55       0.2260
     46  O         12.6050   68.3110   -4.5370 O.2    55  GLU55      -0.2867
     47  CB        15.5630   67.1060   -5.2210 C.3    55  GLU55       0.0388
     48  CG        16.9320   67.0440   -5.8770 C.3    55  GLU55       0.1160
     49  CD        17.8280   65.9670   -5.2740 C.2    55  GLU55       0.3649
     50  OE1       17.3070   65.0310   -4.6130 O.co2  55  GLU55      -0.2457
     51  OE2       19.0650   66.0540   -5.4690 O.co2  55  GLU55      -0.2457
     52  N         28.5560   70.4270   -3.8850 N.3    89  VAL89      -0.1245
     53  CA        29.3990   69.5550   -4.6700 C.3    89  VAL89       0.1561
     54  C         29.4380   69.9820   -6.1320 C.2    89  VAL89       0.2260
     55  O         28.4230   70.3830   -6.7110 O.2    89  VAL89      -0.2867
     56  CB        28.9180   68.0780   -4.5480 C.3    89  VAL89       0.0252
     57  CG1       27.4470   67.9450   -4.9680 C.3    89  VAL89       0.0019
     58  CG2       29.8040   67.1550   -5.3780 C.3    89  VAL89       0.0019
     59  N         29.9330   68.8860   -9.8990 N.3    91  TYR91      -0.1241
     60  CA        29.8780   67.6810  -10.7280 C.3    91  TYR91       0.1605
     61  C         30.2440   67.8700  -12.1950 C.2    91  TYR91       0.2264
     62  O         30.1020   66.9460  -13.0010 O.2    91  TYR91      -0.2867
     63  CB        28.5380   66.9410  -10.5890 C.3    91  TYR91       0.0534
     64  CG        27.2690   67.7290  -10.8730 C.ar   91  TYR91      -0.0201
     65  CD1       26.7090   67.7630  -12.1500 C.ar   91  TYR91      -0.0009
     66  CD2       26.5690   68.3460   -9.8390 C.ar   91  TYR91      -0.0009
     67  CE1       25.4780   68.3980  -12.3830 C.ar   91  TYR91       0.0417
     68  CE2       25.3470   68.9770  -10.0670 C.ar   91  TYR91       0.0417
     69  CZ        24.8060   68.9910  -11.3370 C.ar   91  TYR91       0.1957
     70  OH        23.5860   69.5950  -11.5550 O.3    91  TYR91      -0.2866
     71  N         34.6220   64.6570   -8.9510 N.3    96  PHE96      -0.1241
     72  CA        33.5930   65.4910   -8.3320 C.3    96  PHE96       0.1605
     73  C         34.0330   65.8690   -6.9280 C.2    96  PHE96       0.2264
     74  O         34.3290   65.0020   -6.1170 O.2    96  PHE96      -0.2867
     75  CB        32.2710   64.7390   -8.2900 C.3    96  PHE96       0.0534
     76  CG        31.7790   64.2990   -9.6310 C.ar   96  PHE96      -0.0203
     77  CD1       30.8760   63.2470   -9.7410 C.ar   96  PHE96      -0.0042
     78  CD2       32.2580   64.9030  -10.7990 C.ar   96  PHE96      -0.0042
     79  CE1       30.3650   62.8730  -10.9750 C.ar   96  PHE96      -0.0003
     80  CE2       31.7530   64.5360  -12.0420 C.ar   96  PHE96      -0.0003
     81  CZ        30.8360   63.4820  -12.1330 C.ar   96  PHE96      -0.0000
     82  N         33.6830   68.1550   -3.1860 N.3    98  PHE98      -0.1241
     83  CA        32.7510   68.6660   -2.1860 C.3    98  PHE98       0.1605
     84  C         33.2910   69.8470   -1.3830 C.2    98  PHE98       0.2264
     85  O         34.4920   70.1010   -1.3510 O.2    98  PHE98      -0.2867
     86  CB        32.3790   67.5360   -1.2060 C.3    98  PHE98       0.0534
     87  CG        31.6590   66.3660   -1.8490 C.ar   98  PHE98      -0.0203
     88  CD1       32.3610   65.4000   -2.5610 C.ar   98  PHE98      -0.0042
     89  CD2       30.2870   66.1930   -1.6660 C.ar   98  PHE98      -0.0042
     90  CE1       31.7020   64.2860   -3.0920 C.ar   98  PHE98      -0.0003
     91  CE2       29.6230   65.0850   -2.1890 C.ar   98  PHE98      -0.0003
     92  CZ        30.3280   64.1240   -2.8950 C.ar   98  PHE98      -0.0000
@<TRIPOS>BOND
     1    62    61    2
     2    67    65   ar
     3    67    69   ar
     4    61    60    1
     5    65    64   ar
     6    81    80   ar
     7    81    79   ar
     8    80    78   ar
     9    42    41    1
    10    39    41   ar
    11    39    37   ar
    12    70    69    1
    13    69    68   ar
    14    41    40   ar
    15    37    36   ar
    16    79    77   ar
    17    64    63    1
    18    64    66   ar
    19    78    76   ar
    20    60    63    1
    21    60    59    1
    22    68    66   ar
    23    40    38   ar
    24    36    38   ar
    25    36    35    1
    26    77    76   ar
    27    76    75    1
    28    34    33    2
    29    33    32    1
    30    35    32    1
    31    71    72    1
    32    32    31    1
    33    72    75    1
    34    72    73    1
    35    73    74    2
    36     1     2    1
    37    55    54    2
    38    54    53    1
    39     2     3    1
    40    44    43    1
    41    44    45    1
    42    44    47    1
    43    48    49    1
    44    48    47    1
    45    51    49   ar
    46    45    46    2
    47    58    56    1
    48    49    50   ar
    49    57    56    1
    50    53    56    1
    51    53    52    1
    52     3     4    2
    53     3     5   am
    54     5     6    1
    55    13    11   ar
    56    13    14   ar
    57    11    10   ar
    58    82    83    1
    59    90    92   ar
    60    90    88   ar
    61    92    91   ar
    62    88    87   ar
    63    14    16   ar
    64    14    12   ar
    65    10     9    1
    66    10    12   ar
    67     6     9    1
    68     6     7    1
    69    91    89   ar
    70    83    84    1
    71    83    86    1
    72    28    29    1
    73    28    27    1
    74    16    18   ar
    75     8     7    2
    76    29    30    2
    77    25    24    1
    78    87    89   ar
    79    87    86    1
    80    12    15   ar
    81     7    19   am
    82    84    85    2
    83    24    26    1
    84    24    23    1
    85    18    17   ar
    86    19    20    1
    87    15    17   ar
    88    23    20    1
    89    20    21    1
    90    21    22    2
