@<TRIPOS>MOLECULE
tmp/1c1bA00.pdb
 166 165 0 0 0
SMALL
GASTEIGER

@<TRIPOS>ATOM
      1  N          7.2230  -29.7100   26.9150 N.3    89  PRO89      -0.2116
      2  CA         6.5960  -29.8810   25.6010 C.3    89  PRO89       0.1372
      3  C          5.6290  -28.7220   25.3580 C.2    89  PRO89       0.2244
      4  O          4.9350  -28.2970   26.2750 O.2    89  PRO89      -0.2868
      5  CB         5.8540  -31.2080   25.7450 C.3    89  PRO89       0.0268
      6  CG         6.6200  -31.9260   26.8120 C.3    89  PRO89       0.0207
      7  CD         6.8960  -30.8410   27.7960 C.3    89  PRO89       0.0892
      8  N          2.2290  -27.2740   23.5150 N.3    91  PRO91      -0.2116
      9  CA         0.9640  -27.7580   22.9410 C.3    91  PRO91       0.1372
     10  C          0.9330  -27.9100   21.4310 C.2    91  PRO91       0.2244
     11  O          0.3910  -28.8720   20.9080 O.2    91  PRO91      -0.2868
     12  CB        -0.0480  -26.7300   23.4260 C.3    91  PRO91       0.0268
     13  CG         0.5160  -26.3100   24.7230 C.3    91  PRO91       0.0207
     14  CD         1.9840  -26.1420   24.4220 C.3    91  PRO91       0.0892
     15  N          2.0280  -31.4090   20.0000 N.3    94  LEU94      -0.1231
     16  CA         1.3070  -32.6440   20.2710 C.3    94  LEU94       0.1693
     17  C          0.4750  -33.0260   19.0640 C.2    94  LEU94       0.2591
     18  O          0.0440  -32.1700   18.2850 O.2    94  LEU94      -0.2718
     19  CB         0.3710  -32.4640   21.4610 C.3    94  LEU94       0.0284
     20  CG         1.0040  -32.0180   22.7760 C.3    94  LEU94       0.0019
     21  CD1       -0.0920  -31.8040   23.7990 C.3    94  LEU94       0.0001
     22  CD2        2.0090  -33.0580   23.2660 C.3    94  LEU94       0.0001
     23  N          0.2400  -34.3210   18.9220 N.am   95  LYS95      -0.1980
     24  CA        -0.5520  -34.8270   17.8190 C.3    95  LYS95       0.1596
     25  C         -1.9250  -35.1960   18.3840 C.2    95  LYS95       0.2287
     26  O         -2.0300  -35.7260   19.4950 O.2    95  LYS95      -0.2864
     27  CB         0.1600  -36.0380   17.2270 C.3    95  LYS95       0.0298
     28  CG         1.6640  -35.8250   17.1450 C.3    95  LYS95       0.0038
     29  CD         2.3530  -36.9410   16.3910 C.3    95  LYS95       0.0206
     30  CE         3.8420  -36.6430   16.2030 C.3    95  LYS95       0.1093
     31  NZ         4.5530  -37.6610   15.3590 N.3    95  LYS95      -0.1314
     32  N         -5.2160  -36.9310   19.5060 N.3    97  LYS97      -0.1245
     33  CA        -5.4200  -38.3140   19.9560 C.3    97  LYS97       0.1561
     34  C         -6.8980  -38.6470   20.1330 C.2    97  LYS97       0.2260
     35  O         -7.6580  -37.8680   20.7150 O.2    97  LYS97      -0.2867
     36  CB        -4.7040  -38.5640   21.2940 C.3    97  LYS97       0.0271
     37  CG        -3.1910  -38.5110   21.2210 C.3    97  LYS97       0.0035
     38  CD        -2.6570  -39.4050   20.1160 C.3    97  LYS97       0.0206
     39  CE        -1.1570  -39.2500   19.9290 C.3    97  LYS97       0.1093
     40  NZ        -0.7680  -39.7850   18.5960 N.3    97  LYS97      -0.1314
     41  N         -7.2110  -39.8640   25.4960 N.3   100  VAL100     -0.1245
     42  CA        -6.0920  -39.6070   26.3980 C.3   100  VAL100      0.1561
     43  C         -6.5610  -39.9650   27.7950 C.2   100  VAL100      0.2260
     44  O         -7.5950  -39.4820   28.2460 O.2   100  VAL100     -0.2867
     45  CB        -5.6750  -38.1210   26.3930 C.3   100  VAL100      0.0252
     46  CG1       -4.6930  -37.8430   27.5200 C.3   100  VAL100      0.0019
     47  CG2       -5.0580  -37.7770   25.0580 C.3   100  VAL100      0.0019
     48  N          1.0950  -43.7880   23.1830 N.3   173  VAL173     -0.1245
     49  CA         1.9550  -42.7110   23.6690 C.3   173  VAL173      0.1561
     50  C          1.7990  -42.3940   25.1490 C.2   173  VAL173      0.2260
     51  O          0.6950  -42.1220   25.6230 O.2   173  VAL173     -0.2867
     52  CB         1.6730  -41.4100   22.8950 C.3   173  VAL173      0.0252
     53  CG1        2.3450  -40.2350   23.5710 C.3   173  VAL173      0.0019
     54  CG2        2.1570  -41.5480   21.4750 C.3   173  VAL173      0.0019
     55  N          3.2320  -39.9470   28.3370 N.3   175  TYR175     -0.1241
     56  CA         3.9640  -38.7540   28.6940 C.3   175  TYR175      0.1605
     57  C          3.9060  -38.6170   30.1960 C.2   175  TYR175      0.2264
     58  O          2.8240  -38.4650   30.7530 O.2   175  TYR175     -0.2867
     59  CB         3.3410  -37.5120   28.0710 C.3   175  TYR175      0.0534
     60  CG         3.9470  -36.2420   28.6250 C.ar  175  TYR175     -0.0201
     61  CD1        3.2350  -35.4280   29.5110 C.ar  175  TYR175     -0.0009
     62  CD2        5.2620  -35.8910   28.3260 C.ar  175  TYR175     -0.0009
     63  CE1        3.8310  -34.3010   30.0900 C.ar  175  TYR175      0.0417
     64  CE2        5.8610  -34.7760   28.8990 C.ar  175  TYR175      0.0417
     65  CZ         5.1460  -33.9840   29.7750 C.ar  175  TYR175      0.1957
     66  OH         5.7570  -32.8860   30.3320 O.3   175  TYR175     -0.2866
     67  N          0.2570  -39.5030   31.3260 N.3   182  TYR182     -0.1227
     68  CA        -0.7510  -39.2630   30.2930 C.3   182  TYR182      0.1736
     69  C         -0.5760  -40.2710   29.1730 C.2   182  TYR182      0.2595
     70  O          0.3880  -40.2230   28.4120 O.2   182  TYR182     -0.2718
     71  CB        -0.6530  -37.8410   29.7330 C.3   182  TYR182      0.0548
     72  CG        -0.8940  -36.7750   30.7770 C.ar  182  TYR182     -0.0200
     73  CD1        0.1060  -36.4280   31.6830 C.ar  182  TYR182     -0.0009
     74  CD2       -2.1450  -36.1710   30.9140 C.ar  182  TYR182     -0.0009
     75  CE1       -0.1330  -35.5240   32.7060 C.ar  182  TYR182      0.0417
     76  CE2       -2.3950  -35.2570   31.9390 C.ar  182  TYR182      0.0417
     77  CZ        -1.3810  -34.9440   32.8330 C.ar  182  TYR182      0.1957
     78  OH        -1.6010  -34.0890   33.8860 O.3   182  TYR182     -0.2866
     79  N         -1.5150  -41.2020   29.0980 N.am  183  VAL183     -0.1966
     80  CA        -1.4970  -42.2450   28.0950 C.3   183  VAL183      0.1727
     81  C         -2.5180  -41.8930   27.0200 C.2   183  VAL183      0.2616
     82  O         -3.7090  -41.7020   27.3110 O.2   183  VAL183     -0.2715
     83  CB        -1.8780  -43.5880   28.7190 C.3   183  VAL183      0.0290
     84  CG1       -1.8160  -44.6760   27.6800 C.3   183  VAL183      0.0023
     85  CG2       -0.9530  -43.9000   29.8680 C.3   183  VAL183      0.0023
     86  N         -2.0480  -41.7920   25.7800 N.am  184  GLY184     -0.1955
     87  CA        -2.9430  -41.4710   24.6830 C.3   184  GLY184      0.1869
     88  C         -2.8350  -42.4580   23.5310 C.2   184  GLY184      0.2309
     89  O         -1.8400  -43.1840   23.4160 O.2   184  GLY184     -0.2863
     90  N        -10.1930  -34.5410   30.5780 N.3   219  PRO219     -0.2116
     91  CA       -10.0580  -33.3190   29.7720 C.3   219  PRO219      0.1372
     92  C        -11.1850  -32.3520   30.1260 C.2   219  PRO219      0.2244
     93  O        -12.2540  -32.7780   30.5720 O.2   219  PRO219     -0.2868
     94  CB       -10.1930  -33.8270   28.3430 C.3   219  PRO219      0.0268
     95  CG        -9.6590  -35.2270   28.4340 C.3   219  PRO219      0.0207
     96  CD       -10.2240  -35.7440   29.7300 C.3   219  PRO219      0.0892
     97  N         -7.4140  -30.3460   30.0810 N.3   221  PHE221     -0.1227
     98  CA        -6.3250  -30.3800   31.0240 C.3   221  PHE221      0.1736
     99  C         -5.7650  -28.9780   31.1540 C.2   221  PHE221      0.2595
    100  O         -5.4390  -28.3360   30.1510 O.2   221  PHE221     -0.2718
    101  CB        -5.2510  -31.3330   30.5370 C.3   221  PHE221      0.0547
    102  CG        -5.7120  -32.7520   30.4150 C.ar  221  PHE221     -0.0202
    103  CD1       -6.0880  -33.4730   31.5410 C.ar  221  PHE221     -0.0042
    104  CD2       -5.7190  -33.3880   29.1790 C.ar  221  PHE221     -0.0042
    105  CE1       -6.4570  -34.8040   31.4410 C.ar  221  PHE221     -0.0003
    106  CE2       -6.0860  -34.7140   29.0680 C.ar  221  PHE221     -0.0003
    107  CZ        -6.4540  -35.4270   30.2030 C.ar  221  PHE221     -0.0000
    108  N         -5.6960  -28.4920   32.3900 N.am  222  LEU222     -0.1966
    109  CA        -5.1630  -27.1650   32.6570 C.3   222  LEU222      0.1728
    110  C         -3.6670  -27.3730   32.8250 C.2   222  LEU222      0.2616
    111  O         -3.2100  -27.9590   33.8140 O.2   222  LEU222     -0.2715
    112  CB        -5.7660  -26.5860   33.9360 C.3   222  LEU222      0.0311
    113  CG        -5.6320  -25.0650   34.0650 C.3   222  LEU222      0.0022
    114  CD1       -4.1740  -24.6500   34.2820 C.3   222  LEU222      0.0001
    115  CD2       -6.1990  -24.4310   32.7960 C.3   222  LEU222      0.0001
    116  N         -2.8990  -26.8820   31.8600 N.am  223  TRP223     -0.1974
    117  CA        -1.4700  -27.0960   31.9080 C.3   223  TRP223      0.1640
    118  C         -0.6600  -25.9020   31.4600 C.2   223  TRP223      0.2290
    119  O         -0.7880  -25.4390   30.3170 O.2   223  TRP223     -0.2864
    120  CB        -1.1490  -28.3000   31.0380 C.3   223  TRP223      0.0576
    121  CG         0.2100  -28.8750   31.2070 C.ar  223  TRP223      0.0006
    122  CD1        0.6810  -29.6100   32.2710 C.ar  223  TRP223      0.0946
    123  CD2        1.2550  -28.8510   30.2400 C.ar  223  TRP223      0.0152
    124  NE1        1.9600  -30.0550   32.0080 N.ar  223  TRP223     -0.2442
    125  CE2        2.3360  -29.6040   30.7700 C.ar  223  TRP223      0.0810
    126  CE3        1.3820  -28.2720   28.9720 C.ar  223  TRP223      0.0012
    127  CZ2        3.5230  -29.7920   30.0740 C.ar  223  TRP223      0.0191
    128  CZ3        2.5560  -28.4570   28.2820 C.ar  223  TRP223      0.0001
    129  CH2        3.6170  -29.2130   28.8330 C.ar  223  TRP223      0.0015
    130  N         -5.7650  -27.9090   27.3870 N.3   228  LEU228     -0.1231
    131  CA        -5.6770  -29.0390   26.4850 C.3   228  LEU228      0.1693
    132  C         -7.0380  -29.6920   26.2680 C.2   228  LEU228      0.2592
    133  O         -7.6080  -30.2900   27.1820 O.2   228  LEU228     -0.2718
    134  CB        -4.6780  -30.0720   27.0240 C.3   228  LEU228      0.0284
    135  CG        -3.1780  -29.7480   26.9790 C.3   228  LEU228      0.0019
    136  CD1       -2.8570  -28.9920   25.6990 C.3   228  LEU228      0.0001
    137  CD2       -2.7940  -28.9190   28.1720 C.3   228  LEU228      0.0001
    138  N         -7.5590  -29.5480   25.0550 N.am  229  HIS229     -0.1962
    139  CA        -8.8360  -30.1340   24.7010 C.3   229  HIS229      0.1772
    140  C         -8.5220  -31.2110   23.6880 C.2   229  HIS229      0.2462
    141  O         -7.5160  -31.1270   22.9870 O.2   229  HIS229     -0.2730
    142  CB        -9.7690  -29.1040   24.0520 C.3   229  HIS229      0.0785
    143  CG       -10.2490  -28.0320   24.9860 C.ar  229  HIS229      0.0821
    144  ND1      -11.1310  -27.0520   24.5870 N.ar  229  HIS229     -0.2267
    145  CD2       -9.9620  -27.7820   26.2810 C.ar  229  HIS229      0.1154
    146  CE1      -11.3650  -26.2390   25.6040 C.ar  229  HIS229      0.1986
    147  NE2      -10.6680  -26.6590   26.6440 N.ar  229  HIS229     -0.2212
    148  N         -9.3860  -32.2300   23.5810 N.am  230  PRO230     -0.2727
    149  CA        -9.1830  -33.3320   22.6370 C.3   230  PRO230      0.1402
    150  C         -9.0880  -32.9780   21.1560 C.2   230  PRO230      0.2269
    151  O         -8.4030  -33.6630   20.4040 O.2   230  PRO230     -0.2865
    152  CB       -10.3490  -34.2790   22.9500 C.3   230  PRO230      0.0296
    153  CG       -11.3920  -33.3830   23.5540 C.3   230  PRO230      0.0237
    154  CD       -10.5750  -32.4680   24.4210 C.3   230  PRO230      0.0939
    155  N         -3.6290  -28.8480   16.8300 N.3   311  TYR311     -0.1241
    156  CA        -2.4790  -29.7340   16.9990 C.3   311  TYR311      0.1605
    157  C         -1.7410  -30.1240   15.7270 C.2   311  TYR311      0.2264
    158  O         -2.2000  -29.9020   14.5990 O.2   311  TYR311     -0.2867
    159  CB        -2.9010  -31.0010   17.7060 C.3   311  TYR311      0.0534
    160  CG        -3.5000  -30.7630   19.0630 C.ar  311  TYR311     -0.0201
    161  CD1       -2.7390  -30.2370   20.0960 C.ar  311  TYR311     -0.0009
    162  CD2       -4.8100  -31.1380   19.3370 C.ar  311  TYR311     -0.0009
    163  CE1       -3.2680  -30.0980   21.3780 C.ar  311  TYR311      0.0417
    164  CE2       -5.3480  -31.0060   20.6120 C.ar  311  TYR311      0.0417
    165  CZ        -4.5750  -30.4880   21.6310 C.ar  311  TYR311      0.1957
    166  OH        -5.1120  -30.3630   22.8980 O.3   311  TYR311     -0.2866
@<TRIPOS>BOND
     1   158   157    2
     2    31    30    1
     3   157   156    1
     4    30    29    1
     5    29    28    1
     6   155   156    1
     7   156   159    1
     8    28    27    1
     9    27    24    1
    10   159   160    1
    11    24    25    1
    12    24    23    1
    13    18    17    2
    14    25    26    2
    15    40    39    1
    16    23    17   am
    17   160   162   ar
    18   160   161   ar
    19    17    16    1
    20   162   164   ar
    21    32    33    1
    22    39    38    1
    23    33    34    1
    24    33    36    1
    25    15    16    1
    26   161   163   ar
    27    38    37    1
    28    34    35    2
    29    16    19    1
    30   151   150    2
    31   164   165   ar
    32    11    10    2
    33   150   149    1
    34    37    36    1
    35   163   165   ar
    36    10     9    1
    37    19    20    1
    38    54    52    1
    39   165   166    1
    40   149   152    1
    41   149   148    1
    42    20    22    1
    43    20    21    1
    44    52    53    1
    45    52    49    1
    46     9    12    1
    47     9     8    1
    48   152   153    1
    49   141   140    2
    50    48    49    1
    51    89    88    2
    52    12    13    1
    53     8    14    1
    54    88    87    1
    55   153   154    1
    56   148   140   am
    57   148   154    1
    58    49    50    1
    59   140   139    1
    60   142   139    1
    61   142   143    1
    62    14    13    1
    63   144   143   ar
    64   144   146   ar
    65    87    86    1
    66   139   138    1
    67   143   145   ar
    68   138   132   am
    69    47    45    1
    70    50    51    2
    71     3     2    1
    72     3     4    2
    73    41    42    1
    74     2     5    1
    75     2     1    1
    76   146   147   ar
    77   136   135    1
    78     5     6    1
    79    86    81   am
    80   132   131    1
    81   132   133    2
    82   145   147   ar
    83    45    42    1
    84    45    46    1
    85    42    43    1
    86   131   134    1
    87   131   130    1
    88     6     7    1
    89     1     7    1
    90   135   134    1
    91   135   137    1
    92    81    82    2
    93    81    80    1
    94    84    83    1
    95    43    44    2
    96    59    60    1
    97    59    56    1
    98    80    83    1
    99    80    79    1
   100   128   129   ar
   101   128   126   ar
   102    62    60   ar
   103    62    64   ar
   104    55    56    1
   105    94    95    1
   106    94    91    1
   107    70    69    2
   108    95    96    1
   109    60    61   ar
   110    56    57    1
   111    83    85    1
   112   129   127   ar
   113    64    65   ar
   114   126   123   ar
   115   106   104   ar
   116   106   107   ar
   117    79    69   am
   118    69    68    1
   119   104   102   ar
   120    61    63   ar
   121    96    90    1
   122    71    68    1
   123    71    72    1
   124    91    92    1
   125    91    90    1
   126    65    63   ar
   127    65    66    1
   128   127   125   ar
   129    97    98    1
   130    92    93    2
   131   100    99    2
   132    57    58    2
   133   107   105   ar
   134   123   125   ar
   135   123   121   ar
   136    68    67    1
   137   119   118    2
   138   102   101    1
   139   102   103   ar
   140   101    98    1
   141   125   124   ar
   142    72    74   ar
   143    72    73   ar
   144    74    76   ar
   145    98    99    1
   146   120   121    1
   147   120   117    1
   148    99   108   am
   149   121   122   ar
   150   105   103   ar
   151   118   117    1
   152    73    75   ar
   153   116   117    1
   154   116   110   am
   155    76    77   ar
   156   124   122   ar
   157   108   109    1
   158   109   110    1
   159   109   112    1
   160    75    77   ar
   161   115   113    1
   162   110   111    2
   163    77    78    1
   164   112   113    1
   165   113   114    1
