@<TRIPOS>MOLECULE
tmp/1c1cA00.pdb
 161 160 0 0 0
SMALL
GASTEIGER

@<TRIPOS>ATOM
      1  N          6.7400  -29.7210   26.1500 N.3    93  PRO93      -0.2116
      2  CA         6.1160  -29.6110   24.8310 C.3    93  PRO93       0.1372
      3  C          5.2120  -28.3950   24.6480 C.2    93  PRO93       0.2244
      4  O          4.5740  -27.9380   25.5900 O.2    93  PRO93      -0.2868
      5  CB         5.3560  -30.9300   24.7010 C.3    93  PRO93       0.0268
      6  CG         5.0030  -31.2510   26.1240 C.3    93  PRO93       0.0207
      7  CD         6.2650  -30.9240   26.8620 C.3    93  PRO93       0.0892
      8  N          1.7850  -30.7730   19.2020 N.3    98  LEU98      -0.1231
      9  CA         1.0770  -32.0040   19.5080 C.3    98  LEU98       0.1693
     10  C          0.2750  -32.4070   18.2760 C.2    98  LEU98       0.2592
     11  O         -0.1170  -31.5600   17.4640 O.2    98  LEU98      -0.2718
     12  CB         0.0970  -31.7710   20.6550 C.3    98  LEU98       0.0284
     13  CG         0.5920  -31.2740   22.0250 C.3    98  LEU98       0.0019
     14  CD1       -0.5910  -30.7330   22.8130 C.3    98  LEU98       0.0001
     15  CD2        1.2840  -32.3960   22.7930 C.3    98  LEU98       0.0001
     16  N          0.0300  -33.7030   18.1450 N.am   99  LYS99      -0.1966
     17  CA        -0.7650  -34.2070   17.0400 C.3    99  LYS99       0.1728
     18  C         -2.1420  -34.4450   17.6320 C.2    99  LYS99       0.2616
     19  O         -2.2680  -34.7750   18.8120 O.2    99  LYS99      -0.2715
     20  CB        -0.1770  -35.5170   16.5030 C.3    99  LYS99       0.0311
     21  CG         1.1820  -35.3590   15.8460 C.3    99  LYS99       0.0038
     22  CD         1.8300  -36.7120   15.5550 C.3    99  LYS99       0.0206
     23  CE         3.3280  -36.5930   15.2080 C.3    99  LYS99       0.1093
     24  NZ         4.0410  -37.9250   15.1520 N.3    99  LYS99      -0.1314
     25  N         -3.1850  -34.2640   16.8400 N.am  100  LYS100     -0.1963
     26  CA        -4.5000  -34.4900   17.3990 C.3   100  LYS100      0.1728
     27  C         -4.7010  -35.9820   17.6010 C.2   100  LYS100      0.2616
     28  O         -4.2620  -36.8050   16.7910 O.2   100  LYS100     -0.2715
     29  CB        -5.5800  -33.9170   16.4880 C.3   100  LYS100      0.0311
     30  CG        -5.8470  -34.6870   15.2140 C.3   100  LYS100      0.0038
     31  CD        -6.9380  -33.9950   14.4130 C.3   100  LYS100      0.0206
     32  CE        -8.2380  -33.8810   15.2060 C.3   100  LYS100      0.1093
     33  NZ        -8.0630  -33.1030   16.4630 N.3   100  LYS100     -0.1314
     34  N         -5.3570  -36.3270   18.7010 N.am  101  LYS101     -0.1977
     35  CA        -5.5960  -37.7180   19.0190 C.3   101  LYS101      0.1596
     36  C         -7.0690  -38.0320   19.1610 C.2   101  LYS101      0.2287
     37  O         -7.8460  -37.2040   19.6280 O.2   101  LYS101     -0.2864
     38  CB        -4.8700  -38.0850   20.3110 C.3   101  LYS101      0.0298
     39  CG        -3.3920  -37.8240   20.2460 C.3   101  LYS101      0.0038
     40  CD        -2.7740  -38.4660   19.0090 C.3   101  LYS101      0.0206
     41  CE        -1.2940  -38.1110   18.8650 C.3   101  LYS101      0.1093
     42  NZ        -0.6380  -38.8020   17.7160 N.3   101  LYS101     -0.1314
     43  N         -7.2240  -39.0980   24.5410 N.3   104  VAL104     -0.1245
     44  CA        -6.1170  -38.7810   25.4100 C.3   104  VAL104      0.1561
     45  C         -6.5870  -39.0320   26.8340 C.2   104  VAL104      0.2260
     46  O         -7.4560  -38.3270   27.3400 O.2   104  VAL104     -0.2867
     47  CB        -5.6790  -37.3030   25.2830 C.3   104  VAL104      0.0252
     48  CG1       -4.7260  -36.9330   26.4420 C.3   104  VAL104      0.0019
     49  CG2       -5.0170  -37.0760   23.9460 C.3   104  VAL104      0.0019
     50  N          1.0820  -42.7140   22.1400 N.3   177  VAL177     -0.1245
     51  CA         2.0100  -41.6960   22.6410 C.3   177  VAL177      0.1561
     52  C          1.7170  -41.3370   24.0980 C.2   177  VAL177      0.2260
     53  O          0.6030  -40.9520   24.4490 O.2   177  VAL177     -0.2867
     54  CB         1.9440  -40.3830   21.8070 C.3   177  VAL177      0.0252
     55  CG1        2.8840  -39.3320   22.4050 C.3   177  VAL177      0.0019
     56  CG2        2.3220  -40.6580   20.3540 C.3   177  VAL177      0.0019
     57  N          2.9770  -39.0220   27.4880 N.3   179  TYR179     -0.1241
     58  CA         3.7750  -37.8810   27.8730 C.3   179  TYR179      0.1605
     59  C          4.0070  -37.8340   29.3720 C.2   179  TYR179      0.2264
     60  O          3.0920  -37.5690   30.1550 O.2   179  TYR179     -0.2867
     61  CB         3.1460  -36.5720   27.4310 C.3   179  TYR179      0.0534
     62  CG         3.9320  -35.3970   27.9680 C.ar  179  TYR179     -0.0201
     63  CD1        3.3190  -34.4100   28.7280 C.ar  179  TYR179     -0.0009
     64  CD2        5.3140  -35.3260   27.7970 C.ar  179  TYR179     -0.0009
     65  CE1        4.0640  -33.3880   29.3110 C.ar  179  TYR179      0.0417
     66  CE2        6.0660  -34.3090   28.3790 C.ar  179  TYR179      0.0417
     67  CZ         5.4360  -33.3460   29.1360 C.ar  179  TYR179      0.1957
     68  OH         6.1770  -32.3480   29.7300 O.3   179  TYR179     -0.2866
     69  N          0.0250  -38.4120   30.0930 N.3   186  TYR186     -0.1241
     70  CA        -1.0730  -38.1560   29.1800 C.3   186  TYR186      0.1605
     71  C         -0.8860  -39.1600   28.0770 C.2   186  TYR186      0.2264
     72  O          0.0550  -39.0450   27.2970 O.2   186  TYR186     -0.2867
     73  CB        -1.0010  -36.7390   28.6040 C.3   186  TYR186      0.0534
     74  CG        -0.9490  -35.6870   29.6740 C.ar  186  TYR186     -0.0201
     75  CD1        0.2190  -35.4900   30.4100 C.ar  186  TYR186     -0.0009
     76  CD2       -2.0810  -34.9430   30.0110 C.ar  186  TYR186     -0.0009
     77  CE1        0.2680  -34.5890   31.4570 C.ar  186  TYR186      0.0417
     78  CE2       -2.0510  -34.0300   31.0690 C.ar  186  TYR186      0.0417
     79  CZ        -0.8640  -33.8620   31.7910 C.ar  186  TYR186      0.1957
     80  OH        -0.7880  -32.9840   32.8540 O.3   186  TYR186     -0.2866
     81  N         -2.2770  -40.8470   24.7000 N.3   188  GLY188     -0.1225
     82  CA        -3.2200  -40.6340   23.6180 C.3   188  GLY188      0.1811
     83  C         -3.0150  -41.5880   22.4660 C.2   188  GLY188      0.2280
     84  O         -1.9350  -42.1610   22.3200 O.2   188  GLY188     -0.2866
     85  N        -10.4970  -33.5110   29.6330 N.3   223  PRO223     -0.2116
     86  CA       -10.3020  -32.3780   28.7310 C.3   223  PRO223      0.1372
     87  C        -11.2880  -31.2950   29.1430 C.2   223  PRO223      0.2244
     88  O        -12.2920  -31.5830   29.7880 O.2   223  PRO223     -0.2868
     89  CB       -10.6330  -32.9670   27.3560 C.3   223  PRO223      0.0268
     90  CG       -10.2320  -34.4150   27.5040 C.3   223  PRO223      0.0207
     91  CD       -10.7520  -34.7530   28.8820 C.3   223  PRO223      0.0892
     92  N         -7.4460  -29.9160   28.6640 N.3   225  PHE225     -0.1227
     93  CA        -6.3050  -29.8350   29.5500 C.3   225  PHE225      0.1736
     94  C         -5.7040  -28.4370   29.5200 C.2   225  PHE225      0.2595
     95  O         -5.4990  -27.8610   28.4460 O.2   225  PHE225     -0.2718
     96  CB        -5.2670  -30.8840   29.1560 C.3   225  PHE225      0.0547
     97  CG        -5.7670  -32.2930   29.2760 C.ar  225  PHE225     -0.0202
     98  CD1       -6.2110  -32.7800   30.5100 C.ar  225  PHE225     -0.0042
     99  CD2       -5.8110  -33.1330   28.1590 C.ar  225  PHE225     -0.0042
    100  CE1       -6.6900  -34.0760   30.6330 C.ar  225  PHE225     -0.0003
    101  CE2       -6.2910  -34.4350   28.2690 C.ar  225  PHE225     -0.0003
    102  CZ        -6.7310  -34.9090   29.5070 C.ar  225  PHE225     -0.0000
    103  N         -5.4630  -27.8880   30.7130 N.am  226  LEU226     -0.1966
    104  CA        -4.8830  -26.5550   30.8620 C.3   226  LEU226      0.1728
    105  C         -3.3820  -26.7090   30.7760 C.2   226  LEU226      0.2616
    106  O         -2.7920  -27.4650   31.5330 O.2   226  LEU226     -0.2715
    107  CB        -5.2580  -25.9540   32.2210 C.3   226  LEU226      0.0311
    108  CG        -6.7440  -25.6620   32.4670 C.3   226  LEU226      0.0022
    109  CD1       -6.9290  -25.1030   33.8590 C.3   226  LEU226      0.0001
    110  CD2       -7.2730  -24.6740   31.4190 C.3   226  LEU226      0.0001
    111  N         -2.7550  -25.9980   29.8550 N.am  227  TRP227     -0.1974
    112  CA        -1.3160  -26.1220   29.7200 C.3   227  TRP227      0.1640
    113  C         -0.6830  -24.8160   29.3050 C.2   227  TRP227      0.2290
    114  O         -1.0140  -24.2580   28.2590 O.2   227  TRP227     -0.2864
    115  CB        -0.9970  -27.2200   28.7130 C.3   227  TRP227      0.0576
    116  CG         0.4550  -27.5380   28.5680 C.ar  227  TRP227      0.0006
    117  CD1        1.2660  -27.1950   27.5280 C.ar  227  TRP227      0.0946
    118  CD2        1.2600  -28.3130   29.4700 C.ar  227  TRP227      0.0152
    119  NE1        2.5270  -27.7130   27.7190 N.ar  227  TRP227     -0.2442
    120  CE2        2.5500  -28.4040   28.9010 C.ar  227  TRP227      0.0810
    121  CE3        1.0130  -28.9480   30.6970 C.ar  227  TRP227      0.0012
    122  CZ2        3.5910  -29.0910   29.5180 C.ar  227  TRP227      0.0191
    123  CZ3        2.0460  -29.6350   31.3090 C.ar  227  TRP227      0.0001
    124  CH2        3.3210  -29.7050   30.7140 C.ar  227  TRP227      0.0015
    125  N         -6.3900  -27.2240   26.1050 N.3   232  LEU232     -0.1231
    126  CA        -6.2300  -28.2680   25.1130 C.3   232  LEU232      0.1693
    127  C         -7.4790  -29.1310   25.0300 C.2   232  LEU232      0.2592
    128  O         -7.8320  -29.8540   25.9660 O.2   232  LEU232     -0.2718
    129  CB        -5.0000  -29.1230   25.4430 C.3   232  LEU232      0.0284
    130  CG        -3.6250  -28.4540   25.2950 C.3   232  LEU232      0.0019
    131  CD1       -3.4800  -27.8770   23.8890 C.3   232  LEU232      0.0001
    132  CD2       -3.4830  -27.3510   26.3140 C.3   232  LEU232      0.0001
    133  N         -8.1590  -29.0100   23.9000 N.am  233  HIS233     -0.1962
    134  CA        -9.3610  -29.7690   23.6310 C.3   233  HIS233      0.1772
    135  C         -8.9070  -30.8780   22.7050 C.2   233  HIS233      0.2462
    136  O         -7.8020  -30.8400   22.1780 O.2   233  HIS233     -0.2730
    137  CB       -10.4010  -28.8940   22.9240 C.3   233  HIS233      0.0785
    138  CG       -10.8060  -27.6850   23.7100 C.ar  233  HIS233      0.0821
    139  ND1      -11.6150  -27.7580   24.8260 N.ar  233  HIS233     -0.2267
    140  CD2      -10.4970  -26.3770   23.5530 C.ar  233  HIS233      0.1154
    141  CE1      -11.7820  -26.5440   25.3220 C.ar  233  HIS233      0.1986
    142  NE2      -11.1130  -25.6900   24.5700 N.ar  233  HIS233     -0.2212
    143  N         -9.7460  -31.8900   22.4990 N.am  234  PRO234     -0.2727
    144  CA        -9.3580  -32.9820   21.6110 C.3   234  PRO234      0.1402
    145  C         -9.1380  -32.5400   20.1630 C.2   234  PRO234      0.2269
    146  O         -8.1570  -32.9340   19.5310 O.2   234  PRO234     -0.2865
    147  CB       -10.5250  -33.9510   21.7430 C.3   234  PRO234      0.0296
    148  CG       -11.6870  -33.0300   21.9650 C.3   234  PRO234      0.0237
    149  CD       -11.1190  -32.0800   22.9940 C.3   234  PRO234      0.0939
    150  N         -3.8650  -28.4900   15.8370 N.3   315  TYR315     -0.1241
    151  CA        -2.7540  -29.3740   16.2190 C.3   315  TYR315      0.1605
    152  C         -1.9310  -29.7850   14.9960 C.2   315  TYR315      0.2264
    153  O         -2.3600  -29.6430   13.8400 O.2   315  TYR315     -0.2867
    154  CB        -3.2620  -30.6270   16.9230 C.3   315  TYR315      0.0534
    155  CG        -3.8640  -30.3730   18.2810 C.ar  315  TYR315     -0.0201
    156  CD1       -3.0770  -29.9360   19.3430 C.ar  315  TYR315     -0.0009
    157  CD2       -5.2150  -30.6000   18.5140 C.ar  315  TYR315     -0.0009
    158  CE1       -3.6160  -29.7310   20.6080 C.ar  315  TYR315      0.0417
    159  CE2       -5.7700  -30.4050   19.7770 C.ar  315  TYR315      0.0417
    160  CZ        -4.9650  -29.9710   20.8230 C.ar  315  TYR315      0.1957
    161  OH        -5.5060  -29.7980   22.0810 O.3   315  TYR315     -0.2866
@<TRIPOS>BOND
     1   153   152    2
     2    31    32    1
     3    31    30    1
     4   152   151    1
     5    24    23    1
     6    32    33    1
     7    23    22    1
     8    30    29    1
     9    22    21    1
    10   150   151    1
    11    21    20    1
    12   151   154    1
    13    29    26    1
    14    20    17    1
    15    28    27    2
    16    25    26    1
    17    25    18   am
    18   154   155    1
    19    17    18    1
    20    17    16    1
    21    26    27    1
    22    11    10    2
    23    27    34   am
    24    18    19    2
    25    42    41    1
    26    16    10   am
    27    10     9    1
    28   155   157   ar
    29   155   156   ar
    30   157   159   ar
    31    34    35    1
    32    41    40    1
    33    40    39    1
    34    35    36    1
    35    35    38    1
    36    36    37    2
    37     8     9    1
    38   156   158   ar
    39     9    12    1
    40   146   145    2
    41   159   160   ar
    42   145   144    1
    43    39    38    1
    44    56    54    1
    45   158   160   ar
    46    12    13    1
    47   160   161    1
    48   144   147    1
    49   144   143    1
    50   147   148    1
    51    54    55    1
    52    54    51    1
    53   148   149    1
    54    13    15    1
    55    13    14    1
    56    50    51    1
    57   136   135    2
    58    84    83    2
    59    83    82    1
    60   143   135   am
    61   143   149    1
    62    51    52    1
    63   135   134    1
    64   137   134    1
    65   137   138    1
    66   140   138   ar
    67   140   142   ar
    68    82    81    1
    69   134   133    1
    70   138   139   ar
    71   131   130    1
    72   133   127   am
    73    49    47    1
    74    52    53    2
    75    43    44    1
    76   142   141   ar
    77     3     2    1
    78     3     4    2
    79     5     2    1
    80     5     6    1
    81   139   141   ar
    82     2     1    1
    83   127   126    1
    84   127   128    2
    85   126   129    1
    86   126   125    1
    87    47    44    1
    88    47    48    1
    89   130   129    1
    90   130   132    1
    91    44    45    1
    92     6     7    1
    93     1     7    1
    94    45    46    2
    95    72    71    2
    96    89    90    1
    97    89    86    1
    98    61    58    1
    99    61    62    1
   100    57    58    1
   101    90    91    1
   102   117   119   ar
   103   117   116   ar
   104   119   120   ar
   105    64    62   ar
   106    64    66   ar
   107    58    59    1
   108    62    63   ar
   109    71    70    1
   110    99   101   ar
   111    99    97   ar
   112   114   113    2
   113   101   102   ar
   114    66    67   ar
   115    95    94    2
   116   116   115    1
   117   116   118   ar
   118    73    70    1
   119    73    74    1
   120    92    93    1
   121   115   112    1
   122    63    65   ar
   123    86    87    1
   124    86    85    1
   125    91    85    1
   126   120   118   ar
   127   120   122   ar
   128    67    65   ar
   129    67    68    1
   130    87    88    2
   131    96    97    1
   132    96    93    1
   133    70    69    1
   134    97    98   ar
   135   113   112    1
   136    59    60    2
   137   118   121   ar
   138   102   100   ar
   139   122   124   ar
   140    94    93    1
   141    94   103   am
   142    74    76   ar
   143    74    75   ar
   144   112   111    1
   145   111   105   am
   146    76    78   ar
   147    75    77   ar
   148    98   100   ar
   149   121   123   ar
   150   103   104    1
   151   124   123   ar
   152   105   104    1
   153   105   106    2
   154   104   107    1
   155    78    79   ar
   156   110   108    1
   157    77    79   ar
   158    79    80    1
   159   107   108    1
   160   108   109    1
