@<TRIPOS>MOLECULE
tmp/1c1dA00.pdb
 130 121 0 0 0
SMALL
GASTEIGER

@<TRIPOS>ATOM
      1  N          9.0310   34.3920  -15.4110 N.3    38  ALA38      -0.1231
      2  CA         9.0680   35.8090  -15.1200 C.3    38  ALA38       0.1694
      3  C         10.2150   36.4600  -15.8610 C.2    38  ALA38       0.2593
      4  O         11.2710   35.8080  -15.9760 O.2    38  ALA38      -0.2718
      5  CB         9.0600   36.1600  -13.6530 C.3    38  ALA38       0.0304
      6  N          9.9870   37.6940  -16.3140 N.am   39  GLY39      -0.1942
      7  CA        11.0340   38.3990  -17.0170 C.3    39  GLY39       0.2014
      8  C         10.5080   39.7070  -17.5490 C.2    39  GLY39       0.2639
      9  O          9.3330   39.8960  -17.8190 O.2    39  GLY39      -0.2714
     10  N         11.4080   40.6340  -17.7510 N.am   40  GLY40      -0.1954
     11  CA        10.9590   41.9310  -18.1920 C.3    40  GLY40       0.1869
     12  C         10.6210   42.0880  -19.6440 C.2    40  GLY40       0.2309
     13  O         10.7150   41.1510  -20.4480 O.2    40  GLY40      -0.2863
     14  N         16.8700   34.3680  -17.7520 N.3    63  MET63      -0.1245
     15  CA        16.0080   34.5270  -16.5740 C.3    63  MET63       0.1570
     16  C         15.8090   33.2080  -15.8330 C.2    63  MET63       0.2261
     17  O         15.7850   33.1640  -14.6200 O.2    63  MET63      -0.2867
     18  CB        14.6090   35.0560  -17.0180 C.3    63  MET63       0.0387
     19  CG        14.6370   36.5150  -17.4870 C.3    63  MET63       0.0595
     20  SD        15.3300   37.6610  -16.2310 S.3    63  MET63      -0.1393
     21  CE        14.3700   37.1360  -14.7800 C.3    63  MET63       0.0692
     22  N         18.9290   32.7200  -13.7960 N.3    66  LYS66      -0.1231
     23  CA        19.0100   33.7590  -12.7680 C.3    66  LYS66       0.1693
     24  C         18.1080   33.4200  -11.5900 C.2    66  LYS66       0.2591
     25  O         18.4760   33.5370  -10.4370 O.2    66  LYS66      -0.2718
     26  CB        18.5610   35.0700  -13.4100 C.3    66  LYS66       0.0285
     27  CG        18.5450   36.3030  -12.5800 C.3    66  LYS66       0.0035
     28  CD        18.1130   37.5090  -13.4200 C.3    66  LYS66       0.0206
     29  CE        18.6700   37.6680  -14.8380 C.3    66  LYS66       0.1093
     30  NZ        18.7950   39.1130  -15.1990 N.3    66  LYS66      -0.1314
     31  N         16.8580   33.0010  -11.8870 N.am   67  MET67      -0.1979
     32  CA        15.9270   32.6420  -10.8160 C.3    67  MET67       0.1605
     33  C         16.4310   31.4410  -10.0280 C.2    67  MET67       0.2287
     34  O         16.4750   31.4780   -8.8040 O.2    67  MET67      -0.2864
     35  CB        14.4770   32.3090  -11.3100 C.3    67  MET67       0.0413
     36  CG        13.8500   33.5140  -12.0390 C.3    67  MET67       0.0598
     37  SD        13.4690   34.8710  -10.8910 S.3    67  MET67      -0.1393
     38  CE        12.5310   35.9880  -11.9890 C.3    67  MET67       0.0692
     39  N         10.6550   36.1890  -21.0810 N.3    78  LYS78      -0.1245
     40  CA        11.0290   37.5360  -21.4500 C.3    78  LYS78       0.1561
     41  C         10.0990   38.0270  -22.5510 C.2    78  LYS78       0.2260
     42  O          9.6730   37.2370  -23.3900 O.2    78  LYS78      -0.2867
     43  CB        12.4700   37.6080  -22.0300 C.3    78  LYS78       0.0271
     44  CG        13.1010   38.9900  -21.9710 C.3    78  LYS78       0.0035
     45  CD        13.7390   39.2660  -20.6150 C.3    78  LYS78       0.0206
     46  CE        14.4000   40.6520  -20.5920 C.3    78  LYS78       0.1093
     47  NZ        15.2380   40.8710  -19.3930 N.3    78  LYS78      -0.1314
     48  N          5.4980   39.8630  -16.0160 N.3   115  THR115     -0.1203
     49  CA         6.4320   40.7890  -16.6230 C.3   115  THR115      0.1994
     50  C          7.0020   41.7790  -15.6320 C.2   115  THR115      0.2618
     51  O          6.6680   41.7940  -14.4430 O.2   115  THR115     -0.2717
     52  CB         5.8360   41.4380  -17.8830 C.3   115  THR115      0.1784
     53  OG1        6.8530   41.8590  -18.7630 O.3   115  THR115     -0.2211
     54  CG2        4.9710   42.6580  -17.5850 C.3   115  THR115      0.0376
     55  N          7.9110   42.6270  -16.1390 N.am  116  GLY116     -0.1942
     56  CA         8.5680   43.6510  -15.3140 C.3   116  GLY116      0.1998
     57  C          9.2670   44.5720  -16.2950 C.2   116  GLY116      0.2481
     58  O          9.2130   44.3970  -17.4890 O.2   116  GLY116     -0.2729
     59  N          9.9400   45.6030  -15.8290 N.am  117  PRO117     -0.2715
     60  CA        10.6260   46.5160  -16.7570 C.3   117  PRO117      0.1536
     61  C         11.9470   45.9370  -17.2660 C.2   117  PRO117      0.2598
     62  O         12.5250   45.0180  -16.6540 O.2   117  PRO117     -0.2715
     63  CB        10.9790   47.7460  -15.9220 C.3   117  PRO117      0.0310
     64  CG        10.3950   47.5200  -14.5360 C.3   117  PRO117      0.0237
     65  CD        10.0350   46.0400  -14.4060 C.3   117  PRO117      0.0939
     66  N         12.3850   46.4870  -18.3880 N.am  118  ASP118     -0.1972
     67  CA        13.6530   46.1270  -18.9950 C.3   118  ASP118      0.1709
     68  C         14.0260   47.3510  -19.7930 C.2   118  ASP118      0.2293
     69  O         13.5170   48.4720  -19.5410 O.2   118  ASP118     -0.2864
     70  CB        13.7900   44.7590  -19.7120 C.3   118  ASP118      0.1436
     71  CG        15.2810   44.4400  -19.8570 C.2   118  ASP118      0.3671
     72  OD1       16.0420   44.1990  -18.9350 O.co2 118  ASP118     -0.2456
     73  OD2       15.7390   44.4570  -21.0800 O.co2 118  ASP118     -0.2456
     74  N          5.1500   42.9050  -12.4510 N.3   137  PHE137     -0.1241
     75  CA         5.9840   43.3330  -11.3350 C.3   137  PHE137      0.1605
     76  C          6.5630   44.7110  -11.7090 C.2   137  PHE137      0.2264
     77  O          6.5800   45.1310  -12.8720 O.2   137  PHE137     -0.2867
     78  CB         7.2070   42.4320  -11.2060 C.3   137  PHE137      0.0534
     79  CG         6.8870   41.0420  -10.7890 C.ar  137  PHE137     -0.0203
     80  CD1        5.9780   40.7690   -9.7720 C.ar  137  PHE137     -0.0042
     81  CD2        7.5250   39.9720  -11.4100 C.ar  137  PHE137     -0.0042
     82  CE1        5.7310   39.4470   -9.3910 C.ar  137  PHE137     -0.0003
     83  CE2        7.2950   38.6560  -11.0120 C.ar  137  PHE137     -0.0003
     84  CZ         6.3870   38.3730   -9.9940 C.ar  137  PHE137     -0.0000
     85  N         14.0530   48.5650   -9.9800 N.3   149  SER149     -0.1217
     86  CA        14.9270   47.5180   -9.4500 C.3   149  SER149      0.1889
     87  C         16.3990   47.8740   -9.7290 C.2   149  SER149      0.2288
     88  O         17.2930   47.1460   -9.2990 O.2   149  SER149     -0.2866
     89  CB        14.6740   46.1890  -10.2020 C.3   149  SER149      0.2089
     90  OG        14.8630   46.3170  -11.6000 O.3   149  SER149     -0.2183
     91  N         22.6010   41.8590  -19.6300 N.3   262  ASN262     -0.1240
     92  CA        22.2000   40.4820  -19.8290 C.3   262  ASN262      0.1653
     93  C         22.9190   39.9190  -21.0750 C.2   262  ASN262      0.2266
     94  O         23.1370   40.6730  -22.0150 O.2   262  ASN262     -0.2867
     95  CB        20.6630   40.3820  -20.1360 C.3   262  ASN262      0.1155
     96  CG        19.8500   40.3430  -18.8580 C.2   262  ASN262      0.2627
     97  OD1       19.8800   39.3460  -18.0940 O.2   262  ASN262     -0.2716
     98  ND2       19.0570   41.4090  -18.6390 N.am  262  ASN262     -0.0877
     99  N         23.9800   39.9270  -12.0950 N.3   288  ASN288     -0.1240
    100  CA        22.9580   40.9480  -12.2320 C.3   288  ASN288      0.1653
    101  C         21.6100   40.5480  -11.6490 C.2   288  ASN288      0.2266
    102  O         20.6260   41.2220  -11.9130 O.2   288  ASN288     -0.2867
    103  CB        22.8460   41.3130  -13.7170 C.3   288  ASN288      0.1155
    104  CG        22.1490   40.2590  -14.5860 C.2   288  ASN288      0.2627
    105  OD1       21.4350   39.3760  -14.0990 O.2   288  ASN288     -0.2716
    106  ND2       22.3950   40.3160  -15.8910 N.am  288  ASN288     -0.0877
    107  N         18.1480   42.6550   -9.5410 N.3   291  GLY291     -0.1210
    108  CA        16.8720   43.2120  -10.0280 C.3   291  GLY291      0.1956
    109  C         15.7520   42.2050   -9.7240 C.2   291  GLY291      0.2611
    110  O         14.7030   42.5270   -9.1940 O.2   291  GLY291     -0.2717
    111  N         15.9740   40.9420  -10.0670 N.am  292  ALA292     -0.1979
    112  CA        15.0100   39.8830   -9.8280 C.3   292  ALA292      0.1597
    113  C         14.8270   39.6870   -8.3400 C.2   292  ALA292      0.2287
    114  O         13.7110   39.4670   -7.8230 O.2   292  ALA292     -0.2864
    115  CB        15.5120   38.6010  -10.5300 C.3   292  ALA292      0.0319
    116  N         12.5080   42.4900   -7.2520 N.3   295  LEU295     -0.1231
    117  CA        11.1050   42.3670   -7.6680 C.3   295  LEU295      0.1693
    118  C         10.3910   41.1760   -7.0710 C.2   295  LEU295      0.2591
    119  O          9.2660   41.2630   -6.5260 O.2   295  LEU295     -0.2718
    120  CB        10.9550   42.3600   -9.2110 C.3   295  LEU295      0.0284
    121  CG        11.4240   43.6660   -9.8700 C.3   295  LEU295      0.0019
    122  CD1       11.3750   43.4770  -11.3870 C.3   295  LEU295      0.0001
    123  CD2       10.5210   44.8690   -9.5180 C.3   295  LEU295      0.0001
    124  N         11.0230   40.0170   -7.1700 N.am  296  VAL296     -0.1980
    125  CA        10.4170   38.8090   -6.6550 C.3   296  VAL296      0.1595
    126  C         10.3900   38.7850   -5.1270 C.2   296  VAL296      0.2287
    127  O          9.4340   38.3610   -4.4750 O.2   296  VAL296     -0.2864
    128  CB        11.1250   37.5830   -7.1980 C.3   296  VAL296      0.0276
    129  CG1       10.4690   36.3020   -6.6940 C.3   296  VAL296      0.0022
    130  CG2       11.0680   37.6180   -8.7170 C.3   296  VAL296      0.0022
@<TRIPOS>BOND
     1    42    41    2
     2    41    40    1
     3    43    44    1
     4    43    40    1
     5    94    93    2
     6    44    45    1
     7    40    39    1
     8    73    71   ar
     9    93    92    1
    10    45    46    1
    11    46    47    1
    12    13    12    2
    13    95    92    1
    14    95    96    1
    15    71    70    1
    16    71    72   ar
    17    92    91    1
    18    68    69    2
    19    68    67    1
    20    70    67    1
    21    12    11    1
    22    67    66    1
    23    96    98   am
    24    96    97    2
    25    53    52    1
    26    66    61   am
    27    11    10    1
    28    52    54    1
    29    52    49    1
    30     9     8    2
    31    14    15    1
    32    10     8   am
    33     8     7    1
    34    58    57    2
    35    19    18    1
    36    19    20    1
    37    61    60    1
    38    61    62    2
    39    18    15    1
    40     7     6    1
    41    60    63    1
    42    60    59    1
    43    49    48    1
    44    49    50    1
    45    15    16    1
    46     6     3   am
    47    57    59   am
    48    57    56    1
    49    20    21    1
    50    55    50   am
    51    55    56    1
    52     4     3    2
    53    63    64    1
    54   106   104   am
    55     3     2    1
    56    16    17    2
    57    59    65    1
    58    50    51    2
    59     1     2    1
    60    30    29    1
    61     2     5    1
    62    29    28    1
    63   104   105    2
    64   104   103    1
    65    64    65    1
    66    22    23    1
    67   103   100    1
    68    28    27    1
    69    26    23    1
    70    26    27    1
    71    77    76    2
    72    23    24    1
    73    74    75    1
    74   100    99    1
    75   100   101    1
    76    36    35    1
    77    36    37    1
    78    38    37    1
    79   102   101    2
    80    31    24   am
    81    31    32    1
    82    76    75    1
    83    90    89    1
    84    24    25    2
    85    81    83   ar
    86    81    79   ar
    87   122   121    1
    88    75    78    1
    89    35    32    1
    90    78    79    1
    91    83    84   ar
    92    32    33    1
    93    79    80   ar
    94   115   112    1
    95    89    86    1
    96   111   112    1
    97   111   109   am
    98    33    34    2
    99   108   109    1
   100   108   107    1
   101    84    82   ar
   102    85    86    1
   103   121   123    1
   104   121   120    1
   105   112   113    1
   106    80    82   ar
   107    87    86    1
   108    87    88    2
   109   109   110    2
   110   120   117    1
   111   130   128    1
   112   113   114    2
   113   117   116    1
   114   117   118    1
   115   128   129    1
   116   128   125    1
   117   124   118   am
   118   124   125    1
   119   118   119    2
   120   125   126    1
   121   126   127    2
