@<TRIPOS>MOLECULE
tmp/1c1eB00.pdb
 91 87 0 0 0
SMALL
GASTEIGER

@<TRIPOS>ATOM
      1  N         23.0780  -14.0580   53.6790 N.3    33  GLY33      -0.1225
      2  CA        22.7160  -12.9230   52.8380 C.3    33  GLY33       0.1811
      3  C         22.1580  -11.7810   53.6830 C.2    33  GLY33       0.2280
      4  O         21.6700  -12.0130   54.7960 O.2    33  GLY33      -0.2866
      5  N         19.3890   -8.7740   53.8460 N.3    35  ASN35      -0.1240
      6  CA        18.1710   -8.2610   53.2550 C.3    35  ASN35       0.1653
      7  C         17.9290   -6.8220   53.6730 C.2    35  ASN35       0.2266
      8  O         18.4240   -6.3600   54.7190 O.2    35  ASN35      -0.2867
      9  CB        16.9660   -9.0830   53.6980 C.3    35  ASN35       0.1155
     10  CG        17.0480  -10.5390   53.2520 C.2    35  ASN35       0.2627
     11  OD1       16.2450  -10.9930   52.4510 O.2    35  ASN35      -0.2716
     12  ND2       18.0280  -11.2660   53.7730 N.am   35  ASN35      -0.0877
     13  N          9.8700   -5.7920   51.4330 N.3    47  LEU47      -0.1245
     14  CA        11.2170   -6.2860   51.1510 C.3    47  LEU47       0.1561
     15  C         11.7550   -5.6630   49.8590 C.2    47  LEU47       0.2260
     16  O         11.1380   -5.7660   48.8090 O.2    47  LEU47      -0.2867
     17  CB        11.2070   -7.8150   51.0440 C.3    47  LEU47       0.0270
     18  CG        12.5400   -8.4400   50.6360 C.3    47  LEU47       0.0019
     19  CD1       13.6110   -8.1230   51.6400 C.3    47  LEU47       0.0001
     20  CD2       12.3520   -9.9570   50.5120 C.3    47  LEU47       0.0001
     21  N         17.8360   -8.3330   48.3990 N.3    50  TRP50      -0.1241
     22  CA        18.9350   -8.8060   49.2200 C.3    50  TRP50       0.1605
     23  C         20.1830   -9.0170   48.3470 C.2    50  TRP50       0.2264
     24  O         20.1190   -8.9420   47.1140 O.2    50  TRP50      -0.2867
     25  CB        18.5520  -10.1360   49.8680 C.3    50  TRP50       0.0550
     26  CG        18.2590  -11.1540   48.8380 C.ar   50  TRP50       0.0003
     27  CD1       19.1650  -11.9530   48.2080 C.ar   50  TRP50       0.0946
     28  CD2       16.9860  -11.4270   48.2380 C.ar   50  TRP50       0.0152
     29  NE1       18.5320  -12.7080   47.2440 N.ar   50  TRP50      -0.2442
     30  CE2       17.1980  -12.4090   47.2470 C.ar   50  TRP50       0.0810
     31  CE3       15.6920  -10.9440   48.4430 C.ar   50  TRP50       0.0012
     32  CZ2       16.1640  -12.9050   46.4630 C.ar   50  TRP50       0.0191
     33  CZ3       14.6640  -11.4370   47.6660 C.ar   50  TRP50       0.0001
     34  CH2       14.9010  -12.4140   46.6920 C.ar   50  TRP50       0.0015
     35  N         23.1740  -11.8640   48.0260 N.3    52  ASN52      -0.1226
     36  CA        23.6710  -13.2160   48.3310 C.3    52  ASN52       0.1770
     37  C         25.0720  -13.1100   48.9060 C.2    52  ASN52       0.2439
     38  O         25.7680  -12.1290   48.6760 O.2    52  ASN52      -0.2733
     39  CB        23.7010  -14.0920   47.0510 C.3    52  ASN52       0.1168
     40  CG        22.3070  -14.5890   46.6420 C.2    52  ASN52       0.2627
     41  OD1       21.4590  -13.8100   46.2000 O.2    52  ASN52      -0.2716
     42  ND2       22.0750  -15.8930   46.7770 N.am   52  ASN52      -0.0877
     43  N         25.5270  -14.1230   49.6540 N.am   53  PRO53      -0.2729
     44  CA        26.8470  -14.0940   50.2800 C.3    53  PRO53       0.1401
     45  C         28.0740  -14.4410   49.4200 C.2    53  PRO53       0.2269
     46  O         28.7160  -13.5490   48.8520 O.2    53  PRO53      -0.2865
     47  CB        26.7290  -15.0780   51.4510 C.3    53  PRO53       0.0296
     48  CG        25.6810  -16.0710   50.9910 C.3    53  PRO53       0.0237
     49  CD        24.7990  -15.3800   49.9590 C.3    53  PRO53       0.0939
     50  N         19.6650  -12.9930   56.4000 N.3    99  GLY99      -0.1210
     51  CA        18.8180  -13.9950   55.7830 C.3    99  GLY99       0.1956
     52  C         19.3970  -15.3790   56.0440 C.2    99  GLY99       0.2613
     53  O         20.6170  -15.5390   56.0920 O.2    99  GLY99      -0.2717
     54  N         18.5340  -16.3700   56.2450 N.am  100  THR100     -0.1938
     55  CA        18.9850  -17.7400   56.4770 C.3   100  THR100      0.2028
     56  C         18.4330  -18.6210   55.3670 C.2   100  THR100      0.2642
     57  O         17.2760  -19.0270   55.3970 O.2   100  THR100     -0.2714
     58  CB        18.5300  -18.2910   57.8520 C.3   100  THR100      0.1808
     59  OG1       18.9050  -19.6740   57.9500 O.3   100  THR100     -0.2208
     60  CG2       17.0250  -18.1440   58.0400 C.3   100  THR100      0.0379
     61  N         19.2790  -18.8940   54.3800 N.am  101  THR101     -0.1950
     62  CA        18.9150  -19.6750   53.1940 C.3   101  THR101      0.1897
     63  C         18.0410  -20.9030   53.3550 C.2   101  THR101      0.2313
     64  O         17.0450  -21.0410   52.6670 O.2   101  THR101     -0.2863
     65  CB        20.1650  -20.1150   52.4040 C.3   101  THR101      0.1794
     66  OG1       21.3490  -19.7170   53.1150 O.3   101  THR101     -0.2208
     67  CG2       20.1560  -19.4830   51.0070 C.3   101  THR101      0.0378
     68  N         14.7450  -19.6410   54.2030 N.3   104  ARG104     -0.1231
     69  CA        14.2720  -18.6100   53.2830 C.3   104  ARG104      0.1694
     70  C         13.5260  -17.5620   54.0990 C.2   104  ARG104      0.2592
     71  O         12.3370  -17.3260   53.8960 O.2   104  ARG104     -0.2718
     72  CB        13.3440  -19.2260   52.2160 C.3   104  ARG104      0.0321
     73  CG        14.0910  -19.8860   51.0740 C.3   104  ARG104      0.0489
     74  CD        13.2780  -20.9110   50.3030 C.3   104  ARG104      0.2205
     75  NE        12.3880  -20.3110   49.3190 N.pl3 104  ARG104     -0.0865
     76  CZ        12.3680  -20.6190   48.0190 C.cat 104  ARG104      0.5346
     77  NH1       13.2030  -21.5300   47.5220 N.pl3 104  ARG104      0.1354
     78  NH2       11.5010  -20.0200   47.2140 N.pl3 104  ARG104      0.1354
     79  N         14.2390  -16.9440   55.0310 N.am  105  ALA105     -0.1966
     80  CA        13.6560  -15.9280   55.9030 C.3   105  ALA105      0.1728
     81  C         14.7640  -15.0970   56.5210 C.2   105  ALA105      0.2616
     82  O         15.9300  -15.4710   56.4760 O.2   105  ALA105     -0.2715
     83  CB        12.8490  -16.5780   56.9930 C.3   105  ALA105      0.0334
     84  N         14.4020  -13.9470   57.0680 N.am  106  MET106     -0.1977
     85  CA        15.3760  -13.1020   57.7210 C.3   106  MET106      0.1605
     86  C         15.2180  -13.4470   59.2000 C.2   106  MET106      0.2287
     87  O         14.0860  -13.5310   59.7040 O.2   106  MET106     -0.2864
     88  CB        15.0510  -11.6280   57.4770 C.3   106  MET106      0.0413
     89  CG        13.6150  -11.3760   57.1010 C.3   106  MET106      0.0598
     90  SD        13.4340  -11.0420   55.3100 S.3   106  MET106     -0.1393
     91  CE        11.7560  -10.7650   55.2060 C.3   106  MET106      0.0692
@<TRIPOS>BOND
     1    41    40    2
     2    32    34   ar
     3    32    30   ar
     4    40    42   am
     5    40    39    1
     6    34    33   ar
     7    39    36    1
     8    24    23    2
     9    78    76    1
    10    29    30   ar
    11    29    27   ar
    12    30    28   ar
    13    77    76    1
    14    33    31   ar
    15    76    75    2
    16    35    36    1
    17    27    26   ar
    18    28    31   ar
    19    28    26   ar
    20    36    37    1
    21    23    22    1
    22    21    22    1
    23    38    37    2
    24    16    15    2
    25    26    25    1
    26    46    45    2
    27    37    43   am
    28    22    25    1
    29    75    74    1
    30    45    44    1
    31    43    49    1
    32    43    44    1
    33    15    14    1
    34    49    48    1
    35    44    47    1
    36    74    73    1
    37    20    18    1
    38    18    17    1
    39    18    19    1
    40    48    47    1
    41    67    65    1
    42    17    14    1
    43    73    72    1
    44    14    13    1
    45    72    69    1
    46    65    66    1
    47    65    62    1
    48    11    10    2
    49    64    63    2
    50     2     1    1
    51     2     3    1
    52    62    63    1
    53    62    61    1
    54    10     9    1
    55    10    12   am
    56     6     7    1
    57     6     9    1
    58     6     5    1
    59    69    70    1
    60    69    68    1
    61     7     8    2
    62     3     4    2
    63    71    70    2
    64    70    79   am
    65    61    56   am
    66    79    80    1
    67    91    90    1
    68    90    89    1
    69    56    57    2
    70    56    55    1
    71    51    52    1
    72    51    50    1
    73    80    81    1
    74    80    83    1
    75    52    53    2
    76    52    54   am
    77    54    55    1
    78    82    81    2
    79    55    58    1
    80    81    84   am
    81    84    85    1
    82    89    88    1
    83    88    85    1
    84    85    86    1
    85    58    59    1
    86    58    60    1
    87    86    87    2
