@<TRIPOS>MOLECULE
tmp/1c1lA00.pdb
 117 109 0 0 0
SMALL
GASTEIGER

@<TRIPOS>ATOM
      1  N         22.0350   24.1790    8.8570 N.3    28  ARG28      -0.1245
      2  CA        21.5120   22.8370    9.0320 C.3    28  ARG28       0.1563
      3  C         20.0820   22.8980    9.5230 C.2    28  ARG28       0.2260
      4  O         19.6610   23.9550    9.9970 O.2    28  ARG28      -0.2867
      5  CB        22.3220   22.0600   10.0780 C.3    28  ARG28       0.0307
      6  CG        22.3230   22.7060   11.4740 C.3    28  ARG28       0.0489
      7  CD        23.2650   21.8890   12.3270 C.3    28  ARG28       0.2205
      8  NE        23.3940   22.4270   13.6700 N.pl3  28  ARG28      -0.0865
      9  CZ        23.2700   21.6870   14.7730 C.cat  28  ARG28       0.5346
     10  NH1       23.0070   20.3820   14.7360 N.pl3  28  ARG28       0.1354
     11  NH2       23.4070   22.2770   15.9530 N.pl3  28  ARG28       0.1354
     12  N         16.7250   12.1280   15.7580 N.3    43  HIS43      -0.1241
     13  CA        17.1260   13.4810   15.4260 C.3    43  HIS43       0.1621
     14  C         17.7600   13.2760   14.0660 C.2    43  HIS43       0.2264
     15  O         18.7750   12.5770   13.9750 O.2    43  HIS43      -0.2867
     16  CB        18.1640   13.9970   16.4250 C.3    43  HIS43       0.0745
     17  CG        18.8790   15.2860   16.0260 C.ar   43  HIS43       0.0817
     18  ND1       18.4450   16.5330   16.0470 N.ar   43  HIS43      -0.2268
     19  CD2       20.2050   15.3350   15.6570 C.ar   43  HIS43       0.1154
     20  CE1       19.4220   17.3330   15.7060 C.ar   43  HIS43       0.1986
     21  NE2       20.4730   16.6010   15.4680 N.ar   43  HIS43      -0.2212
     22  N         19.4970   15.2240   11.1940 N.3    45  ASP45      -0.1239
     23  CA        20.0860   16.5150   10.9100 C.3    45  ASP45       0.1674
     24  C         20.7300   16.5890    9.5240 C.2    45  ASP45       0.2266
     25  O         21.6050   15.7810    9.1910 O.2    45  ASP45      -0.2867
     26  CB        21.1160   16.7990   12.0130 C.3    45  ASP45       0.1410
     27  CG        21.4520   18.2620   12.2330 C.2    45  ASP45       0.3668
     28  OD1       20.6630   19.1500   11.9340 O.co2  45  ASP45      -0.2456
     29  OD2       22.5320   18.5180   12.7320 O.co2  45  ASP45      -0.2456
     30  N         23.0380   18.6840    7.4590 N.3    47  ARG47      -0.1245
     31  CA        24.0230   19.7330    7.6350 C.3    47  ARG47       0.1563
     32  C         24.5870   20.1290    6.2860 C.2    47  ARG47       0.2260
     33  O         25.2640   19.3480    5.6030 O.2    47  ARG47      -0.2867
     34  CB        25.1490   19.2390    8.5480 C.3    47  ARG47       0.0307
     35  CG        24.6540   18.8020    9.9110 C.3    47  ARG47       0.0489
     36  CD        25.7930   18.2950   10.7600 C.3    47  ARG47       0.2205
     37  NE        25.2760   18.0840   12.0940 N.pl3  47  ARG47      -0.0865
     38  CZ        25.9730   17.7010   13.1540 C.cat  47  ARG47       0.5346
     39  NH1       27.2690   17.4500   13.0610 N.pl3  47  ARG47       0.1354
     40  NH2       25.3480   17.5520   14.3150 N.pl3  47  ARG47       0.1354
     41  N         28.2650   23.4300    7.8200 N.3    50  TYR50      -0.1241
     42  CA        28.3680   23.4220    9.2530 C.3    50  TYR50       0.1605
     43  C         29.7820   23.0110    9.6100 C.2    50  TYR50       0.2264
     44  O         30.0570   21.8890   10.0360 O.2    50  TYR50      -0.2867
     45  CB        27.3080   22.4540    9.7810 C.3    50  TYR50       0.0534
     46  CG        27.2170   22.4360   11.2930 C.ar   50  TYR50      -0.0201
     47  CD1       26.7630   23.5760   11.9520 C.ar   50  TYR50      -0.0009
     48  CD2       27.5640   21.2970   12.0130 C.ar   50  TYR50      -0.0009
     49  CE1       26.6450   23.5810   13.3340 C.ar   50  TYR50       0.0417
     50  CE2       27.4550   21.2880   13.4000 C.ar   50  TYR50       0.0417
     51  CZ        26.9870   22.4380   14.0450 C.ar   50  TYR50       0.1957
     52  OH        26.8200   22.4410   15.4090 O.3    50  TYR50      -0.2866
     53  N         31.4430   19.6350    8.7190 N.3    53  ASP53      -0.1239
     54  CA        30.3540   18.9230    8.0940 C.3    53  ASP53       0.1674
     55  C         29.7570   19.7440    6.9770 C.2    53  ASP53       0.2266
     56  O         29.1860   20.8230    7.1780 O.2    53  ASP53      -0.2867
     57  CB        29.2890   18.6180    9.1310 C.3    53  ASP53       0.1410
     58  CG        29.7540   17.5570   10.1000 C.2    53  ASP53       0.3668
     59  OD1       30.5200   16.6700    9.7140 O.co2  53  ASP53      -0.2456
     60  OD2       29.3540   17.6200   11.2490 O.co2  53  ASP53      -0.2456
     61  N         23.3600   13.5690    9.7230 N.3    58  VAL58      -0.1245
     62  CA        23.7340   13.0280   11.0090 C.3    58  VAL58       0.1561
     63  C         22.4410   12.5790   11.6780 C.2    58  VAL58       0.2260
     64  O         21.4890   13.3600   11.7910 O.2    58  VAL58      -0.2867
     65  CB        24.4190   14.0970   11.8840 C.3    58  VAL58       0.0252
     66  CG1       24.7090   13.5370   13.2700 C.3    58  VAL58       0.0019
     67  CG2       25.7270   14.5360   11.2330 C.3    58  VAL58       0.0019
     68  N         20.8940   10.6990   15.2440 N.3    60  ASN60      -0.1240
     69  CA        21.2100   10.3730   16.6120 C.3    60  ASN60       0.1653
     70  C         19.9200   10.3780   17.4230 C.2    60  ASN60       0.2266
     71  O         18.8390   10.6210   16.8620 O.2    60  ASN60      -0.2867
     72  CB        22.1860   11.4080   17.1490 C.3    60  ASN60       0.1155
     73  CG        23.0770   10.8550   18.2520 C.2    60  ASN60       0.2627
     74  OD1       22.8430    9.7890   18.8250 O.2    60  ASN60      -0.2716
     75  ND2       24.1220   11.5800   18.6210 N.am   60  ASN60      -0.0877
     76  N         20.3530   18.2180   24.9240 N.3    66  ASP66      -0.1239
     77  CA        21.6500   18.5110   24.3450 C.3    66  ASP66       0.1674
     78  C         22.8180   17.8740   25.0870 C.2    66  ASP66       0.2266
     79  O         23.9340   17.8340   24.5710 O.2    66  ASP66      -0.2867
     80  CB        21.8170   20.0210   24.2820 C.3    66  ASP66       0.1410
     81  CG        22.9140   20.4550   23.3190 C.2    66  ASP66       0.3668
     82  OD1       22.9950   19.9300   22.2130 O.co2  66  ASP66      -0.2456
     83  OD2       23.7060   21.3190   23.6920 O.co2  66  ASP66      -0.2456
     84  N         23.3890   13.3140   23.6690 N.3    69  TRP69      -0.1241
     85  CA        23.5460   12.7800   22.3170 C.3    69  TRP69       0.1605
     86  C         24.4020   11.5300   22.3600 C.2    69  TRP69       0.2264
     87  O         25.4430   11.5180   23.0290 O.2    69  TRP69      -0.2867
     88  CB        24.1920   13.7980   21.3950 C.3    69  TRP69       0.0550
     89  CG        23.3510   15.0480   21.2100 C.ar   69  TRP69       0.0003
     90  CD1       23.7830   16.2680   21.6490 C.ar   69  TRP69       0.0946
     91  CD2       22.1170   15.1070   20.6080 C.ar   69  TRP69       0.0152
     92  NE1       22.8270   17.1090   21.3150 N.ar   69  TRP69      -0.2442
     93  CE2       21.8260   16.4690   20.6880 C.ar   69  TRP69       0.0810
     94  CE3       21.2410   14.2200   19.9890 C.ar   69  TRP69       0.0012
     95  CZ2       20.6160   16.9510   20.1700 C.ar   69  TRP69       0.0191
     96  CZ3       20.0380   14.7010   19.4720 C.ar   69  TRP69       0.0001
     97  CH2       19.7320   16.0630   19.5530 C.ar   69  TRP69       0.0015
     98  N         26.4070    8.8410   16.8190 N.3    72  GLU72      -0.1245
     99  CA        25.9650    9.3280   15.5310 C.3    72  GLU72       0.1567
    100  C         26.1160    8.2830   14.4470 C.2    72  GLU72       0.2260
    101  O         27.0320    7.4470   14.4620 O.2    72  GLU72      -0.2867
    102  CB        26.7780   10.5270   15.0930 C.3    72  GLU72       0.0388
    103  CG        26.6420   11.6750   16.0610 C.3    72  GLU72       0.1160
    104  CD        27.3660   12.9420   15.6330 C.2    72  GLU72       0.3649
    105  OE1       28.2800   12.8840   14.8190 O.co2  72  GLU72      -0.2457
    106  OE2       27.0100   14.0010   16.1230 O.co2  72  GLU72      -0.2457
    107  N         26.0900    8.6370   10.3430 N.3    74  ARG74      -0.1245
    108  CA        26.2500    9.6630    9.3230 C.3    74  ARG74       0.1563
    109  C         26.0900    9.1010    7.9350 C.2    74  ARG74       0.2260
    110  O         26.3510    7.9130    7.7020 O.2    74  ARG74      -0.2867
    111  CB        27.6230   10.2970    9.4080 C.3    74  ARG74       0.0307
    112  CG        27.7520   11.1010   10.6830 C.3    74  ARG74       0.0489
    113  CD        29.1790   11.4980   10.9560 C.3    74  ARG74       0.2205
    114  NE        29.1780   12.4620   12.0410 N.pl3  74  ARG74      -0.0865
    115  CZ        29.4460   13.7400   11.8000 C.cat  74  ARG74       0.5346
    116  NH1       29.7280   14.1350   10.5660 N.pl3  74  ARG74       0.1354
    117  NH2       29.3870   14.6450   12.7750 N.pl3  74  ARG74       0.1354
@<TRIPOS>BOND
     1    33    32    2
     2    32    31    1
     3    55    56    2
     4    55    54    1
     5    30    31    1
     6    31    34    1
     7   110   109    2
     8    41    42    1
     9   109   108    1
    10    54    53    1
    11    54    57    1
    12    34    35    1
    13     1     2    1
    14     2     3    1
    15     2     5    1
    16    57    58    1
    17    25    24    2
    18    42    43    1
    19    42    45    1
    20   108   111    1
    21   108   107    1
    22   111   112    1
    23     3     4    2
    24    24    23    1
    25    43    44    2
    26    59    58   ar
    27    61    62    1
    28    45    46    1
    29    35    36    1
    30     5     6    1
    31    58    60   ar
    32   116   115    1
    33   112   113    1
    34    36    37    1
    35    23    22    1
    36    23    26    1
    37   113   114    1
    38    62    63    1
    39    62    65    1
    40    67    65    1
    41    46    47   ar
    42    46    48   ar
    43     6     7    1
    44    63    64    2
    45   115   114    2
    46   115   117    1
    47    65    66    1
    48    28    27   ar
    49    47    49   ar
    50    26    27    1
    51    48    50   ar
    52    37    38    2
    53    27    29   ar
    54     7     8    1
    55    39    38    1
    56    38    40    1
    57    49    51   ar
    58    50    51   ar
    59     8     9    2
    60    15    14    2
    61    51    52    1
    62    14    13    1
    63   100   101    2
    64   100    99    1
    65    10     9    1
    66     9    11    1
    67   105   104   ar
    68   102    99    1
    69   102   103    1
    70    68    69    1
    71    13    12    1
    72    13    16    1
    73    21    19   ar
    74    21    20   ar
    75    99    98    1
    76   104   103    1
    77   104   106   ar
    78    19    17   ar
    79    20    18   ar
    80    17    18   ar
    81    17    16    1
    82    69    72    1
    83    69    70    1
    84    71    70    2
    85    72    73    1
    86    73    75   am
    87    73    74    2
    88    96    97   ar
    89    96    94   ar
    90    97    95   ar
    91    94    91   ar
    92    95    93   ar
    93    91    93   ar
    94    91    89   ar
    95    93    92   ar
    96    89    88    1
    97    89    90   ar
    98    92    90   ar
    99    88    85    1
   100    82    81   ar
   101    85    86    1
   102    85    84    1
   103    86    87    2
   104    81    83   ar
   105    81    80    1
   106    80    77    1
   107    77    76    1
   108    77    78    1
   109    79    78    2
