@<TRIPOS>MOLECULE
tmp/1c1qA00.pdb
 115 115 0 0 0
SMALL
GASTEIGER

@<TRIPOS>ATOM
      1  N         36.3420   23.6660   45.3480 N.3    40  HIS40      -0.1241
      2  CA        37.2710   24.8000   45.6200 C.3    40  HIS40       0.1621
      3  C         38.3490   24.8940   44.5190 C.2    40  HIS40       0.2264
      4  O         39.1120   25.8460   44.5060 O.2    40  HIS40      -0.2867
      5  CB        37.9050   24.6650   47.0710 C.3    40  HIS40       0.0745
      6  CG        39.0190   23.6470   47.2630 C.ar   40  HIS40       0.0817
      7  ND1       38.9250   22.4290   47.7040 N.ar   40  HIS40      -0.2268
      8  CD2       40.3620   23.8000   47.0120 C.ar   40  HIS40       0.1154
      9  CE1       40.0910   21.8680   47.7280 C.ar   40  HIS40       0.1986
     10  NE2       41.0190   22.6910   47.3050 N.ar   40  HIS40      -0.2212
     11  N         50.5290   12.5620   54.6510 N.3   171  ASP171     -0.1225
     12  CA        49.2310   13.2910   54.3780 C.3   171  ASP171      0.1805
     13  C         49.2110   13.8220   52.9310 C.2   171  ASP171      0.2598
     14  O         50.2240   13.7600   52.2410 O.2   171  ASP171     -0.2718
     15  CB        49.1540   14.5000   55.3580 C.3   171  ASP171      0.1424
     16  CG        47.8030   15.2660   55.4990 C.2   171  ASP171      0.3668
     17  OD1       47.8430   16.2590   56.2100 O.co2 171  ASP171     -0.2456
     18  OD2       46.8180   14.8370   54.9230 O.co2 171  ASP171     -0.2456
     19  N         48.0580   14.3220   52.5170 N.am  172  SER172     -0.1938
     20  CA        47.9190   14.9130   51.1630 C.3   172  SER172      0.2055
     21  C         48.2650   16.4130   51.5330 C.2   172  SER172      0.2643
     22  O         48.3770   16.7640   52.7100 O.2   172  SER172     -0.2714
     23  CB        46.4520   14.7540   50.6330 C.3   172  SER172      0.2130
     24  OG        45.5830   15.2550   51.6300 O.3   172  SER172     -0.2179
     25  N         48.4050   17.2700   50.5610 N.am  173  CYS173     -0.1953
     26  CA        48.7560   18.6860   50.8330 C.3   173  CYS173      0.1843
     27  C         48.2940   19.5630   49.6710 C.2   173  CYS173      0.2625
     28  O         47.7510   19.0510   48.7000 O.2   173  CYS173     -0.2714
     29  CB        50.3000   18.7240   51.0200 C.3   173  CYS173      0.0997
     30  SG        50.9710   20.1720   51.8450 S.3   173  CYS173     -0.0797
     31  N         48.5170   20.8450   49.7810 N.am  174  GLN174     -0.1977
     32  CA        48.0850   21.7250   48.6690 C.3   174  GLN174      0.1601
     33  C         48.7410   21.2510   47.3640 C.2   174  GLN174      0.2287
     34  O         49.9000   20.8660   47.3190 O.2   174  GLN174     -0.2864
     35  CB        48.4680   23.2450   48.9160 C.3   174  GLN174      0.0394
     36  CG        49.5230   23.5630   49.9980 C.3   174  GLN174      0.0908
     37  CD        48.8030   24.1670   51.2170 C.2   174  GLN174      0.2608
     38  OE1       48.5390   23.4900   52.1860 O.2   174  GLN174     -0.2717
     39  NE2       48.4630   25.4220   51.2050 N.am  174  GLN174     -0.0878
     40  N         44.8250   18.8390   46.0650 N.3   177  SER177     -0.1217
     41  CA        43.3760   19.2190   46.1080 C.3   177  SER177      0.1889
     42  C         42.6300   18.7480   44.8620 C.2   177  SER177      0.2288
     43  O         43.1470   18.9140   43.7640 O.2   177  SER177     -0.2866
     44  CB        43.2090   20.7440   46.1430 C.3   177  SER177      0.2089
     45  OG        43.9780   21.2100   47.2470 O.3   177  SER177     -0.2183
     46  N         40.3630   14.9360   47.6840 N.3   191  VAL191     -0.1231
     47  CA        41.2460   15.7290   48.5950 C.3   191  VAL191      0.1692
     48  C         40.5700   17.1170   48.7280 C.2   191  VAL191      0.2593
     49  O         40.4350   17.8250   47.7470 O.2   191  VAL191     -0.2718
     50  CB        42.6580   15.8510   47.9590 C.3   191  VAL191      0.0266
     51  CG1       43.5670   16.6630   48.8800 C.3   191  VAL191      0.0020
     52  CG2       43.3020   14.4680   47.6980 C.3   191  VAL191      0.0020
     53  N         40.1940   17.4430   49.9400 N.am  192  SER192     -0.1938
     54  CA        39.5210   18.7300   50.2060 C.3   192  SER192      0.2055
     55  C         40.2970   19.6960   51.0820 C.2   192  SER192      0.2643
     56  O         40.7100   20.7330   50.5950 O.2   192  SER192     -0.2714
     57  CB        38.1420   18.3630   50.8290 C.3   192  SER192      0.2130
     58  OG        37.3710   19.5320   51.0270 O.3   192  SER192     -0.2179
     59  N         40.4880   19.3770   52.3350 N.am  193  TRP193     -0.1959
     60  CA        41.2330   20.3290   53.1980 C.3   193  TRP193      0.1771
     61  C         41.9520   19.6740   54.3570 C.2   193  TRP193      0.2620
     62  O         42.0430   18.4660   54.4290 O.2   193  TRP193     -0.2715
     63  CB        40.2360   21.3910   53.7150 C.3   193  TRP193      0.0590
     64  CG        39.0260   20.9040   54.5650 C.ar  193  TRP193      0.0006
     65  CD1       37.8560   20.3900   54.0610 C.ar  193  TRP193      0.0946
     66  CD2       38.9090   20.9710   55.9350 C.ar  193  TRP193      0.0152
     67  NE1       37.1040   20.1850   55.1310 N.ar  193  TRP193     -0.2442
     68  CE2       37.6370   20.4980   56.2940 C.ar  193  TRP193      0.0810
     69  CE3       39.7820   21.3970   56.9490 C.ar  193  TRP193      0.0012
     70  CZ2       37.2330   20.4490   57.6130 C.ar  193  TRP193      0.0191
     71  CZ3       39.3700   21.3450   58.2890 C.ar  193  TRP193      0.0001
     72  CH2       38.0950   20.8720   58.6210 C.ar  193  TRP193      0.0015
     73  N         42.4780   20.4620   55.2420 N.am  194  GLY194     -0.1940
     74  CA        43.2080   19.9310   56.4370 C.3   194  GLY194      0.2014
     75  C         43.8320   21.1300   57.1340 C.2   194  GLY194      0.2640
     76  O         43.5120   22.2440   56.7740 O.2   194  GLY194     -0.2714
     77  N         44.6730   20.8920   58.0890 N.am  195  SER195     -0.1935
     78  CA        45.3600   21.9920   58.8550 C.3   195  SER195      0.2055
     79  C         46.8490   21.7540   58.5610 C.2   195  SER195      0.2644
     80  O         47.4220   20.8270   59.1200 O.2   195  SER195     -0.2714
     81  CB        45.0180   21.8080   60.3400 C.3   195  SER195      0.2130
     82  OG        45.5160   22.9520   61.0120 O.3   195  SER195     -0.2179
     83  N         47.4160   22.5730   57.7000 N.am  196  GLY196     -0.1939
     84  CA        48.8620   22.3980   57.3480 C.3   196  GLY196      0.2014
     85  C         48.8990   21.0200   56.6650 C.2   196  GLY196      0.2639
     86  O         47.8910   20.5650   56.1170 O.2   196  GLY196     -0.2714
     87  N         50.0280   20.3860   56.7000 N.am  197  CYS197     -0.1967
     88  CA        50.1680   19.0540   56.0870 C.3   197  CYS197      0.1712
     89  C         51.0790   18.2240   56.9470 C.2   197  CYS197      0.2296
     90  O         52.1100   18.6950   57.3790 O.2   197  CYS197     -0.2864
     91  CB        50.7870   19.1530   54.6750 C.3   197  CYS197      0.0983
     92  SG        49.9340   20.2910   53.5630 S.3   197  CYS197     -0.0798
     93  N         44.0410   14.6370   57.1750 N.3   204  GLY204     -0.1210
     94  CA        43.4410   15.3230   56.0130 C.3   204  GLY204      0.1956
     95  C         41.9220   15.0480   56.0420 C.2   204  GLY204      0.2612
     96  O         41.5070   14.0380   56.5960 O.2   204  GLY204     -0.2717
     97  N         41.1800   15.9470   55.4370 N.am  205  VAL205     -0.1965
     98  CA        39.6980   15.8670   55.3520 C.3   205  VAL205      0.1727
     99  C         39.4200   15.7470   53.8530 C.2   205  VAL205      0.2616
    100  O         39.9730   16.4470   53.0170 O.2   205  VAL205     -0.2715
    101  CB        39.1180   17.1500   56.0120 C.3   205  VAL205      0.0290
    102  CG1       37.5710   16.9410   56.1140 C.3   205  VAL205      0.0023
    103  CG2       39.7350   17.4000   57.4320 C.3   205  VAL205      0.0023
    104  N         38.5440   14.8170   53.5970 N.am  206  TYR206     -0.1974
    105  CA        38.1010   14.4400   52.2420 C.3   206  TYR206      0.1639
    106  C         36.5880   14.4880   52.0100 C.2   206  TYR206      0.2290
    107  O         35.8400   14.2010   52.9290 O.2   206  TYR206     -0.2864
    108  CB        38.5850   12.9700   51.9860 C.3   206  TYR206      0.0560
    109  CG        40.0890   12.8960   52.1980 C.ar  206  TYR206     -0.0198
    110  CD1       40.9100   13.1100   51.1140 C.ar  206  TYR206     -0.0009
    111  CD2       40.6550   12.6850   53.4370 C.ar  206  TYR206     -0.0009
    112  CE1       42.2780   13.1250   51.2530 C.ar  206  TYR206      0.0417
    113  CE2       42.0350   12.7000   53.5810 C.ar  206  TYR206      0.0417
    114  CZ        42.8610   12.9250   52.4830 C.ar  206  TYR206      0.1957
    115  OH        44.2420   12.9880   52.5330 O.3   206  TYR206     -0.2866
@<TRIPOS>BOND
     1    43    42    2
     2     4     3    2
     3     3     2    1
     4    42    41    1
     5     1     2    1
     6     2     5    1
     7    40    41    1
     8    41    44    1
     9    44    45    1
    10     8     6   ar
    11     8    10   ar
    12     5     6    1
    13     6     7   ar
    14    10     9   ar
    15    34    33    2
    16    33    32    1
    17    46    47    1
    18    52    50    1
    19     7     9   ar
    20    49    48    2
    21    50    47    1
    22    50    51    1
    23    47    48    1
    24    32    35    1
    25    32    31    1
    26    28    27    2
    27    48    53   am
    28    35    36    1
    29    27    31   am
    30    27    26    1
    31    53    54    1
    32    36    37    1
    33    54    57    1
    34    54    55    1
    35    25    26    1
    36    25    21   am
    37    56    55    2
    38    23    20    1
    39    23    24    1
    40    57    58    1
    41    26    29    1
    42    29    30    1
    43    55    59   am
    44   110   112   ar
    45   110   109   ar
    46    20    21    1
    47    20    19    1
    48    39    37   am
    49    37    38    2
    50   112   114   ar
    51    21    22    2
    52    30    92    1
    53   108   109    1
    54   108   105    1
    55   106   105    1
    56   106   107    2
    57   109   111   ar
    58    14    13    2
    59   105   104    1
    60    59    60    1
    61   114   115    1
    62   114   113   ar
    63    19    13   am
    64    13    12    1
    65   100    99    2
    66    60    63    1
    67    60    61    1
    68   111   113   ar
    69    92    91    1
    70   104    99   am
    71    63    64    1
    72    99    98    1
    73    65    64   ar
    74    65    67   ar
    75    61    62    2
    76    61    73   am
    77    12    11    1
    78    12    15    1
    79    64    66   ar
    80    91    88    1
    81    18    16   ar
    82    67    68   ar
    83    73    74    1
    84    98    97    1
    85    98   101    1
    86    15    16    1
    87    97    95   am
    88    16    17   ar
    89    66    68   ar
    90    66    69   ar
    91   101   102    1
    92   101   103    1
    93    94    95    1
    94    94    93    1
    95    95    96    2
    96    88    87    1
    97    88    89    1
    98    86    85    2
    99    68    70   ar
   100    74    75    1
   101    85    87   am
   102    85    84    1
   103    76    75    2
   104    89    90    2
   105    69    71   ar
   106    75    77   am
   107    84    83    1
   108    70    72   ar
   109    83    79   am
   110    77    78    1
   111    71    72   ar
   112    79    78    1
   113    79    80    2
   114    78    81    1
   115    81    82    1
