@<TRIPOS>MOLECULE
tmp/1c1rA00.pdb
 142 143 0 0 0
SMALL
GASTEIGER

@<TRIPOS>ATOM
      1  N         47.2980   23.0460   38.9080 N.3    24  PHE24      -0.1227
      2  CA        46.7910   23.6710   40.1690 C.3    24  PHE24       0.1736
      3  C         45.9140   22.7010   40.9980 C.2    24  PHE24       0.2595
      4  O         45.6930   22.9590   42.1590 O.2    24  PHE24      -0.2718
      5  CB        46.0170   24.9670   39.8260 C.3    24  PHE24       0.0547
      6  CG        44.7190   24.7390   39.0680 C.ar   24  PHE24      -0.0202
      7  CD1       43.5430   24.5770   39.7980 C.ar   24  PHE24      -0.0042
      8  CD2       44.6700   24.6930   37.6820 C.ar   24  PHE24      -0.0042
      9  CE1       42.3410   24.3740   39.1460 C.ar   24  PHE24      -0.0003
     10  CE2       43.4650   24.4880   37.0290 C.ar   24  PHE24      -0.0003
     11  CZ        42.2940   24.3270   37.7560 C.ar   24  PHE24      -0.0000
     12  N         45.4270   21.6360   40.4070 N.am   25  CYS25      -0.1970
     13  CA        44.5850   20.6580   41.1690 C.3    25  CYS25       0.1712
     14  C         44.5720   19.3370   40.4430 C.2    25  CYS25       0.2296
     15  O         44.9420   19.2730   39.2860 O.2    25  CYS25      -0.2864
     16  CB        43.1160   21.1700   41.3060 C.3    25  CYS25       0.0983
     17  SG        42.7790   22.3280   42.6590 S.3    25  CYS25      -0.0798
     18  N         36.5270   23.6300   45.4510 N.3    40  HIS40      -0.1226
     19  CA        37.4480   24.7520   45.7890 C.3    40  HIS40       0.1752
     20  C         38.5490   24.8720   44.7120 C.2    40  HIS40       0.2596
     21  O         39.3870   25.7390   44.7810 O.2    40  HIS40      -0.2718
     22  CB        38.0230   24.5320   47.2450 C.3    40  HIS40       0.0759
     23  CG        39.1160   23.4990   47.4370 C.ar   40  HIS40       0.0818
     24  ND1       38.9800   22.2370   47.6770 N.ar   40  HIS40      -0.2268
     25  CD2       40.4670   23.6830   47.3950 C.ar   40  HIS40       0.1154
     26  CE1       40.1150   21.6490   47.7840 C.ar   40  HIS40       0.1986
     27  NE2       41.0410   22.5260   47.6120 N.ar   40  HIS40      -0.2212
     28  N         38.5270   24.0070   43.7330 N.am   41  CYS41      -0.1970
     29  CA        39.5320   24.0380   42.6020 C.3    41  CYS41       0.1712
     30  C         38.8460   24.7490   41.4320 C.2    41  CYS41       0.2296
     31  O         39.4250   24.8780   40.3740 O.2    41  CYS41      -0.2864
     32  CB        39.9000   22.6230   42.1120 C.3    41  CYS41       0.0983
     33  SG        40.9430   21.7280   43.2680 S.3    41  CYS41      -0.0798
     34  N         50.4390   12.8060   54.6870 N.3   171  ASP171     -0.1225
     35  CA        49.1400   13.5150   54.4010 C.3   171  ASP171      0.1805
     36  C         49.1260   13.9880   52.9390 C.2   171  ASP171      0.2598
     37  O         50.1340   13.9150   52.2350 O.2   171  ASP171     -0.2718
     38  CB        49.0420   14.7710   55.3130 C.3   171  ASP171      0.1424
     39  CG        47.6670   15.5130   55.3880 C.2   171  ASP171      0.3668
     40  OD1       47.7060   16.5850   55.9780 O.co2 171  ASP171     -0.2456
     41  OD2       46.6770   14.9990   54.8870 O.co2 171  ASP171     -0.2456
     42  N         47.9820   14.4670   52.5100 N.am  172  SER172     -0.1938
     43  CA        47.8640   14.9950   51.1300 C.3   172  SER172      0.2055
     44  C         48.1670   16.5090   51.4670 C.2   172  SER172      0.2643
     45  O         48.3470   16.8650   52.6340 O.2   172  SER172     -0.2714
     46  CB        46.4120   14.7430   50.5740 C.3   172  SER172      0.2130
     47  OG        45.5120   15.2930   51.5130 O.3   172  SER172     -0.2179
     48  N         48.2170   17.3720   50.4980 N.am  173  CYS173     -0.1953
     49  CA        48.5170   18.7840   50.7870 C.3   173  CYS173      0.1843
     50  C         48.0150   19.6210   49.6090 C.2   173  CYS173      0.2625
     51  O         47.4860   19.1050   48.6250 O.2   173  CYS173     -0.2714
     52  CB        50.0540   18.8590   50.9740 C.3   173  CYS173      0.0997
     53  SG        50.7540   20.3490   51.6930 S.3   173  CYS173     -0.0797
     54  N         48.1810   20.9110   49.7090 N.am  174  GLN174     -0.1963
     55  CA        47.7140   21.7960   48.5890 C.3   174  GLN174      0.1733
     56  C         48.4470   21.3610   47.3160 C.2   174  GLN174      0.2616
     57  O         49.6460   21.1040   47.3020 O.2   174  GLN174     -0.2715
     58  CB        48.0010   23.2830   48.9460 C.3   174  GLN174      0.0408
     59  CG        49.3660   23.4060   49.6140 C.3   174  GLN174      0.0908
     60  CD        49.5460   24.8490   50.0470 C.2   174  GLN174      0.2608
     61  OE1       48.7730   25.3630   50.8430 O.2   174  GLN174     -0.2717
     62  NE2       50.5600   25.5000   49.5310 N.am  174  GLN174     -0.0878
     63  N         47.6390   21.2900   46.2840 N.am  175  GLY175     -0.1955
     64  CA        48.1420   20.8760   44.9390 C.3   175  GLY175      0.1869
     65  C         47.5700   19.4910   44.6810 C.2   175  GLY175      0.2309
     66  O         47.3980   19.0950   43.5450 O.2   175  GLY175     -0.2863
     67  N         44.7740   18.6740   45.9390 N.3   177  SER177     -0.1273
     68  CA        43.3400   19.1660   45.9650 C.3   177  SER177      0.1575
     69  C         42.5360   18.6480   44.8100 C.3   177  SER177      0.2036
     70  O         43.0530   18.8080   43.7260 O.3   177  SER177     -0.2187
     71  CB        43.2620   20.6360   45.7930 C.3   177  SER177      0.2036
     72  OG        44.2650   21.0530   46.7190 O.3   177  SER177     -0.2187
     73  N         40.3670   14.9350   47.6520 N.3   191  VAL191     -0.1231
     74  CA        41.2570   15.7210   48.5650 C.3   191  VAL191      0.1692
     75  C         40.5860   17.1050   48.7550 C.2   191  VAL191      0.2593
     76  O         40.4590   17.8330   47.7910 O.2   191  VAL191     -0.2718
     77  CB        42.6540   15.8640   47.9190 C.3   191  VAL191      0.0266
     78  CG1       43.5890   16.6600   48.8640 C.3   191  VAL191      0.0020
     79  CG2       43.2830   14.4860   47.6280 C.3   191  VAL191      0.0020
     80  N         40.2100   17.4060   49.9750 N.am  192  SER192     -0.1938
     81  CA        39.5280   18.7100   50.2870 C.3   192  SER192      0.2055
     82  C         40.2980   19.7080   51.1830 C.2   192  SER192      0.2643
     83  O         40.7160   20.7530   50.6950 O.2   192  SER192     -0.2714
     84  CB        38.1490   18.3070   50.9010 C.3   192  SER192      0.2130
     85  OG        37.3550   19.4670   51.1020 O.3   192  SER192     -0.2179
     86  N         40.4810   19.4110   52.4400 N.am  193  TRP193     -0.1959
     87  CA        41.2110   20.3900   53.2940 C.3   193  TRP193      0.1771
     88  C         41.9150   19.7420   54.4540 C.2   193  TRP193      0.2620
     89  O         41.9390   18.5380   54.5970 O.2   193  TRP193     -0.2715
     90  CB        40.2210   21.4630   53.8280 C.3   193  TRP193      0.0590
     91  CG        39.0270   20.9370   54.6370 C.ar  193  TRP193      0.0006
     92  CD1       37.8860   20.3880   54.1200 C.ar  193  TRP193      0.0946
     93  CD2       38.9060   20.9830   55.9950 C.ar  193  TRP193      0.0152
     94  NE1       37.1390   20.1390   55.1840 N.ar  193  TRP193     -0.2442
     95  CE2       37.6480   20.4560   56.3640 C.ar  193  TRP193      0.0810
     96  CE3       39.7600   21.4390   56.9930 C.ar  193  TRP193      0.0012
     97  CZ2       37.2640   20.3960   57.7090 C.ar  193  TRP193      0.0191
     98  CZ3       39.3750   21.3780   58.3380 C.ar  193  TRP193      0.0001
     99  CH2       38.1280   20.8580   58.6920 C.ar  193  TRP193      0.0015
    100  N         42.4970   20.5600   55.2690 N.am  194  GLY194     -0.1940
    101  CA        43.2200   20.0270   56.4640 C.3   194  GLY194      0.2014
    102  C         43.7960   21.2260   57.2100 C.2   194  GLY194      0.2640
    103  O         43.4380   22.3380   56.8570 O.2   194  GLY194     -0.2714
    104  N         44.6340   20.9990   58.1820 N.am  195  SER195     -0.1935
    105  CA        45.2590   22.1290   58.9620 C.3   195  SER195      0.2055
    106  C         46.7380   21.9680   58.5640 C.2   195  SER195      0.2644
    107  O         47.3780   21.0430   59.0420 O.2   195  SER195     -0.2714
    108  CB        45.0960   21.9130   60.4640 C.3   195  SER195      0.2130
    109  OG        45.5820   23.1370   61.0020 O.3   195  SER195     -0.2179
    110  N         47.2340   22.8370   57.7140 N.am  196  GLY196     -0.1939
    111  CA        48.6640   22.6950   57.2970 C.3   196  GLY196      0.2014
    112  C         48.7370   21.3150   56.6170 C.2   196  GLY196      0.2639
    113  O         47.7440   20.8540   56.0660 O.2   196  GLY196     -0.2714
    114  N         49.8670   20.6780   56.6420 N.am  197  CYS197     -0.1967
    115  CA        49.9810   19.3430   56.0160 C.3   197  CYS197      0.1712
    116  C         50.8630   18.4970   56.8920 C.2   197  CYS197      0.2296
    117  O         51.8820   18.9480   57.3630 O.2   197  CYS197     -0.2864
    118  CB        50.6100   19.4700   54.5990 C.3   197  CYS197      0.0983
    119  SG        49.7450   20.5600   53.4460 S.3   197  CYS197     -0.0798
    120  N         44.0220   14.6210   57.2470 N.3   204  GLY204     -0.1210
    121  CA        43.4530   15.2920   56.0330 C.3   204  GLY204      0.1956
    122  C         41.9350   15.0580   56.0670 C.2   204  GLY204      0.2612
    123  O         41.5240   14.0450   56.6210 O.2   204  GLY204     -0.2717
    124  N         41.1830   15.9670   55.4890 N.am  205  VAL205     -0.1965
    125  CA        39.7010   15.8600   55.4530 C.3   205  VAL205      0.1727
    126  C         39.3940   15.7230   53.9880 C.2   205  VAL205      0.2616
    127  O         39.9210   16.4420   53.1550 O.2   205  VAL205     -0.2715
    128  CB        39.0930   17.1450   56.0960 C.3   205  VAL205      0.0290
    129  CG1       37.5610   16.9730   56.2590 C.3   205  VAL205      0.0023
    130  CG2       39.7710   17.4220   57.4960 C.3   205  VAL205      0.0023
    131  N         38.5340   14.7840   53.7170 N.am  206  TYR206     -0.1974
    132  CA        38.0890   14.4280   52.3510 C.3   206  TYR206      0.1639
    133  C         36.5640   14.4830   52.1060 C.2   206  TYR206      0.2290
    134  O         35.8110   14.2260   53.0320 O.2   206  TYR206     -0.2864
    135  CB        38.6010   12.9750   52.0880 C.3   206  TYR206      0.0560
    136  CG        40.1180   12.8990   52.3060 C.ar  206  TYR206     -0.0198
    137  CD1       40.9150   13.1470   51.2190 C.ar  206  TYR206     -0.0009
    138  CD2       40.6990   12.6530   53.5470 C.ar  206  TYR206     -0.0009
    139  CE1       42.2740   13.1680   51.3410 C.ar  206  TYR206      0.0417
    140  CE2       42.0820   12.6690   53.6810 C.ar  206  TYR206      0.0417
    141  CZ        42.8630   12.9350   52.5670 C.ar  206  TYR206      0.1957
    142  OH        44.2310   13.0210   52.5890 O.3   206  TYR206     -0.2866
@<TRIPOS>BOND
     1    10     8   ar
     2    10    11   ar
     3     8     6   ar
     4    11     9   ar
     5     1     2    1
     6     6     7   ar
     7     6     5    1
     8     9     7   ar
     9    15    14    2
    10     5     2    1
    11     2     3    1
    12    31    30    2
    13    12     3   am
    14    12    13    1
    15    14    13    1
    16     3     4    2
    17    13    16    1
    18    16    17    1
    19    30    29    1
    20    32    29    1
    21    32    33    1
    22    29    28    1
    23    17    33    1
    24    66    65    2
    25    70    69    1
    26    28    20   am
    27    65    64    1
    28    20    21    2
    29    20    19    1
    30    69    68    1
    31    64    63    1
    32    18    19    1
    33    19    22    1
    34    71    68    1
    35    71    72    1
    36    67    68    1
    37    63    56   am
    38    22    23    1
    39    57    56    2
    40    56    55    1
    41    25    23   ar
    42    25    27   ar
    43    23    24   ar
    44    27    26   ar
    45    79    77    1
    46    73    74    1
    47    24    26   ar
    48    76    75    2
    49    77    74    1
    50    77    78    1
    51    74    75    1
    52    55    58    1
    53    55    54    1
    54    51    50    2
    55    75    80   am
    56    58    59    1
    57    62    60   am
    58    50    54   am
    59    50    49    1
    60    59    60    1
    61    80    81    1
    62    60    61    2
    63    81    84    1
    64    81    82    1
    65    48    49    1
    66    48    44   am
    67    46    43    1
    68    46    47    1
    69    83    82    2
    70    49    52    1
    71    84    85    1
    72    52    53    1
    73    43    44    1
    74    43    42    1
    75    82    86   am
    76   137   139   ar
    77   137   136   ar
    78   139   141   ar
    79    44    45    2
    80    53   119    1
    81   135   136    1
    82   135   132    1
    83   133   132    1
    84   133   134    2
    85    37    36    2
    86   136   138   ar
    87   132   131    1
    88    86    87    1
    89    42    36   am
    90   141   142    1
    91   141   140   ar
    92    36    35    1
    93   127   126    2
    94    87    90    1
    95    87    88    1
    96   119   118    1
    97   138   140   ar
    98   131   126   am
    99    90    91    1
   100   126   125    1
   101    92    91   ar
   102    92    94   ar
   103    35    34    1
   104    35    38    1
   105    88    89    2
   106    88   100   am
   107   118   115    1
   108    91    93   ar
   109    41    39   ar
   110    94    95   ar
   111   100   101    1
   112    38    39    1
   113    39    40   ar
   114   125   124    1
   115   125   128    1
   116   124   122   am
   117    93    95   ar
   118    93    96   ar
   119   115   114    1
   120   115   116    1
   121   121   122    1
   122   121   120    1
   123   113   112    2
   124   122   123    2
   125   128   129    1
   126   128   130    1
   127    95    97   ar
   128   101   102    1
   129   112   114   am
   130   112   111    1
   131   103   102    2
   132   116   117    2
   133    96    98   ar
   134   102   104   am
   135   111   110    1
   136    97    99   ar
   137   110   106   am
   138   104   105    1
   139    98    99   ar
   140   106   105    1
   141   106   107    2
   142   105   108    1
   143   108   109    1
