@<TRIPOS>MOLECULE
tmp/1c1uB00.pdb
 171 172 0 0 0
SMALL
GASTEIGER

@<TRIPOS>ATOM
      1  N         13.9700   -7.7350    9.3030 N.3    27  LEU27      -0.1231
      2  CA        15.0640   -8.2400   10.1440 C.3    27  LEU27       0.1693
      3  C         14.7300   -7.9510   11.5960 C.2    27  LEU27       0.2592
      4  O         14.6350   -8.8550   12.4000 O.2    27  LEU27      -0.2718
      5  CB        16.3390   -7.5280    9.7370 C.3    27  LEU27       0.0284
      6  CG        17.5100   -8.4850    9.6520 C.3    27  LEU27       0.0019
      7  CD1       17.2610   -9.5510    8.5190 C.3    27  LEU27       0.0001
      8  CD2       18.7360   -7.6190    9.3140 C.3    27  LEU27       0.0001
      9  N         14.5500   -6.6880   11.8760 N.am   28  CYS28      -0.1970
     10  CA        14.2360   -6.2060   13.2590 C.3    28  CYS28       0.1712
     11  C         13.4660   -4.9120   13.1760 C.2    28  CYS28       0.2296
     12  O         13.1570   -4.4470   12.0970 O.2    28  CYS28      -0.2864
     13  CB        15.5560   -5.9340   14.0090 C.3    28  CYS28       0.0983
     14  SG        16.5310   -7.3220   14.6220 S.3    28  CYS28      -0.0798
     15  N         22.3370   -7.1760   18.6400 N.3    43  HIS43      -0.1226
     16  CA        22.2440   -8.5760   18.1150 C.3    43  HIS43       0.1752
     17  C         21.4350   -8.7290   16.8130 C.2    43  HIS43       0.2596
     18  O         21.3460   -9.8060   16.2750 O.2    43  HIS43      -0.2718
     19  CB        21.6650   -9.4840   19.1810 C.3    43  HIS43       0.0759
     20  CG        20.2070   -9.3540   19.3550 C.ar   43  HIS43       0.0818
     21  ND1       19.5770   -8.5430   20.1310 N.ar   43  HIS43      -0.2268
     22  CD2       19.2340  -10.0750   18.7210 C.ar   43  HIS43       0.1154
     23  CE1       18.3060   -8.7270   20.0050 C.ar   43  HIS43       0.1986
     24  NE2       18.0670   -9.6670   19.1430 N.ar   43  HIS43      -0.2212
     25  N         20.8770   -7.6510   16.3430 N.am   44  CYS44      -0.1970
     26  CA        20.0960   -7.6610   15.0970 C.3    44  CYS44       0.1712
     27  C         21.1030   -7.6110   13.9820 C.2    44  CYS44       0.2296
     28  O         20.8700   -8.0400   12.8670 O.2    44  CYS44      -0.2864
     29  CB        19.2730   -6.4330   14.9700 C.3    44  CYS44       0.0983
     30  SG        17.7620   -6.4060   15.9240 S.3    44  CYS44      -0.0798
     31  N         25.4830  -17.4350   15.2250 N.3    50  TRP50      -0.1241
     32  CA        24.6440  -17.7910   14.0280 C.3    50  TRP50       0.1605
     33  C         25.2320  -17.1580   12.8080 C.2    50  TRP50       0.2264
     34  O         24.5660  -16.9590   11.8190 O.2    50  TRP50      -0.2867
     35  CB        23.2060  -17.2750   14.1720 C.3    50  TRP50       0.0550
     36  CG        22.4810  -17.8320   15.4030 C.ar   50  TRP50       0.0003
     37  CD1       22.8380  -18.9340   16.1310 C.ar   50  TRP50       0.0946
     38  CD2       21.3560  -17.2950   15.9450 C.ar   50  TRP50       0.0152
     39  NE1       21.9110  -18.9930   17.0650 N.ar   50  TRP50      -0.2442
     40  CE2       20.9760  -18.0580   17.0500 C.ar   50  TRP50       0.0810
     41  CE3       20.5950  -16.1720   15.5790 C.ar   50  TRP50       0.0012
     42  CZ2       19.8500  -17.7130   17.7910 C.ar   50  TRP50       0.0191
     43  CZ3       19.4700  -15.8240   16.3170 C.ar   50  TRP50       0.0001
     44  CH2       19.0980  -16.5940   17.4230 C.ar   50  TRP50       0.0015
     45  N         26.0120  -14.1460   12.0730 N.3    52  LYS52      -0.1245
     46  CA        25.2840  -12.9130   11.6470 C.3    52  LYS52       0.1561
     47  C         26.2310  -11.7380   11.8620 C.2    52  LYS52       0.2260
     48  O         26.6880  -11.5450   12.9690 O.2    52  LYS52      -0.2867
     49  CB        24.0500  -12.7610   12.5080 C.3    52  LYS52       0.0271
     50  CG        23.2980  -11.4550   12.1150 C.3    52  LYS52       0.0035
     51  CD        22.1840  -11.1750   13.1590 C.3    52  LYS52       0.0206
     52  CE        20.9580  -12.0920   13.0020 C.3    52  LYS52       0.1093
     53  NZ        20.0680  -11.9170   14.1830 N.3    52  LYS52      -0.1314
     54  N          3.7440   -9.8290   25.2400 N.3   192  ASP192     -0.1225
     55  CA         5.2130   -9.9120   25.1700 C.3   192  ASP192      0.1805
     56  C          5.6390   -9.5800   23.7270 C.2   192  ASP192      0.2598
     57  O          4.8520   -9.5330   22.7980 O.2   192  ASP192     -0.2718
     58  CB         5.6840  -11.3500   25.5570 C.3   192  ASP192      0.1424
     59  CG         7.2460  -11.5070   25.7590 C.2   192  ASP192      0.3668
     60  OD1        7.9380  -10.5230   25.9620 O.co2 192  ASP192     -0.2456
     61  OD2        7.7140  -12.6380   25.7120 O.co2 192  ASP192     -0.2456
     62  N          6.9090   -9.3470   23.5950 N.am  193  ALA193     -0.1966
     63  CA         7.5280   -9.0400   22.3020 C.3   193  ALA193      0.1728
     64  C          7.8640  -10.4680   21.8770 C.2   193  ALA193      0.2616
     65  O          7.6910  -11.4110   22.6250 O.2   193  ALA193     -0.2715
     66  CB         8.8480   -8.2560   22.4500 C.3   193  ALA193      0.0334
     67  N          8.3470  -10.6250   20.7000 N.am  194  CYS194     -0.1954
     68  CA         8.6970  -11.9860   20.2200 C.3   194  CYS194      0.1843
     69  C          9.5950  -11.7390   19.0340 C.2   194  CYS194      0.2625
     70  O          9.8300  -10.5920   18.6680 O.2   194  CYS194     -0.2714
     71  CB         7.4140  -12.7650   19.7910 C.3   194  CYS194      0.0997
     72  SG         7.5860  -14.5580   19.5500 S.3   194  CYS194     -0.0797
     73  N         10.0400  -12.8360   18.4950 N.am  195  GLU195     -0.1963
     74  CA        10.9430  -12.8430   17.3060 C.3   195  GLU195      0.1733
     75  C         10.4700  -11.8560   16.2310 C.2   195  GLU195      0.2616
     76  O          9.3280  -11.9380   15.8180 O.2   195  GLU195     -0.2715
     77  CB        10.9810  -14.2500   16.6350 C.3   195  GLU195      0.0429
     78  CG        12.3740  -14.9230   16.7580 C.3   195  GLU195      0.1163
     79  CD        12.6770  -15.6300   15.4230 C.2   195  GLU195      0.3649
     80  OE1       13.0970  -14.9150   14.5240 O.co2 195  GLU195     -0.2457
     81  OE2       12.4660  -16.8320   15.3750 O.co2 195  GLU195     -0.2457
     82  N         11.3360  -10.9730   15.8080 N.am  196  GLY196     -0.1955
     83  CA        10.9600   -9.9800   14.7570 C.3   196  GLY196      0.1869
     84  C         10.7610   -8.5960   15.3430 C.2   196  GLY196      0.2309
     85  O         10.8350   -7.6290   14.6140 O.2   196  GLY196     -0.2863
     86  N         12.5690   -7.4860   17.9510 N.3   198  SER198     -0.1217
     87  CA        13.9020   -7.1110   18.4660 C.3   198  SER198      0.1889
     88  C         14.3610   -5.7860   17.8950 C.2   198  SER198      0.2288
     89  O         14.0630   -5.5130   16.7580 O.2   198  SER198     -0.2866
     90  CB        14.8500   -8.2440   18.0910 C.3   198  SER198      0.2089
     91  OG        13.9900   -9.3850   18.2410 O.3   198  SER198     -0.2183
     92  N         13.9520   -3.6340   22.6390 N.3   218  VAL218     -0.1231
     93  CA        13.6090   -5.0820   22.7910 C.3   218  VAL218      0.1692
     94  C         14.9100   -5.8610   22.5720 C.2   218  VAL218      0.2593
     95  O         15.5000   -5.8230   21.5050 O.2   218  VAL218     -0.2718
     96  CB        12.5240   -5.4420   21.7240 C.3   218  VAL218      0.0266
     97  CG1       12.0270   -6.9150   21.8820 C.3   218  VAL218      0.0020
     98  CG2       11.2950   -4.5130   21.8500 C.3   218  VAL218      0.0020
     99  N         15.3080   -6.5640   23.5840 N.am  219  SER219     -0.1938
    100  CA        16.5500   -7.3520   23.5490 C.3   219  SER219      0.2055
    101  C         16.3930   -8.8620   23.5450 C.2   219  SER219      0.2643
    102  O         16.7990   -9.4910   22.5850 O.2   219  SER219     -0.2714
    103  CB        17.3400   -6.8730   24.7570 C.3   219  SER219      0.2130
    104  OG        18.6200   -7.4810   24.7620 O.3   219  SER219     -0.2179
    105  N         15.8500   -9.4200   24.5900 N.am  220  TRP220     -0.1959
    106  CA        15.6980  -10.8980   24.6090 C.3   220  TRP220      0.1771
    107  C         14.6270  -11.4210   25.5420 C.2   220  TRP220      0.2620
    108  O         14.0150  -10.7260   26.3250 O.2   220  TRP220     -0.2715
    109  CB        17.0820  -11.5580   24.9840 C.3   220  TRP220      0.0590
    110  CG        17.7150  -11.1380   26.3480 C.ar  220  TRP220      0.0006
    111  CD1       18.5510  -10.0800   26.5520 C.ar  220  TRP220      0.0946
    112  CD2       17.5490  -11.7850   27.5400 C.ar  220  TRP220      0.0152
    113  NE1       18.8380  -10.1530   27.8440 N.ar  220  TRP220     -0.2442
    114  CE2       18.2860  -11.1420   28.5210 C.ar  220  TRP220      0.0810
    115  CE3       16.8010  -12.9240   27.8860 C.ar  220  TRP220      0.0012
    116  CZ2       18.2780  -11.6270   29.8260 C.ar  220  TRP220      0.0191
    117  CZ3       16.7960  -13.4010   29.1850 C.ar  220  TRP220      0.0001
    118  CH2       17.5360  -12.7490   30.1530 C.ar  220  TRP220      0.0015
    119  N         14.3720  -12.6990   25.4590 N.am  221  GLY221     -0.1954
    120  CA        13.3530  -13.3590   26.3140 C.3   221  GLY221      0.1869
    121  C         13.5510  -14.8370   26.0450 C.2   221  GLY221      0.2309
    122  O         14.3180  -15.1750   25.1670 O.2   221  GLY221     -0.2863
    123  N         11.4890  -17.6100   24.8300 N.3   223  GLY223     -0.1210
    124  CA        10.1590  -17.9770   24.2800 C.3   223  GLY223      0.1956
    125  C          9.3800  -16.6590   24.1770 C.2   223  GLY223      0.2612
    126  O          9.9320  -15.5950   24.3880 O.2   223  GLY223     -0.2717
    127  N          8.1210  -16.7390   23.8650 N.am  224  CYS224     -0.1970
    128  CA         7.2800  -15.5330   23.7410 C.3   224  CYS224      0.1712
    129  C          6.0250  -15.7350   24.5580 C.2   224  CYS224      0.2296
    130  O          5.2710  -16.6590   24.3090 O.2   224  CYS224     -0.2864
    131  CB         6.9350  -15.3440   22.3150 C.3   224  CYS224      0.0983
    132  SG         8.3920  -15.1650   21.2870 S.3   224  CYS224     -0.0798
    133  N          9.7100  -13.3340   31.4230 N.3   230  TYR230     -0.1227
    134  CA         9.5480  -11.8850   31.0470 C.3   230  TYR230      0.1736
    135  C         10.4460  -11.5330   29.8630 C.2   230  TYR230      0.2596
    136  O         11.2900  -12.3180   29.4430 O.2   230  TYR230     -0.2718
    137  CB         9.9300  -10.9670   32.2970 C.3   230  TYR230      0.0548
    138  CG         9.0870  -11.4130   33.4700 C.ar  230  TYR230     -0.0200
    139  CD1        7.8420  -10.8740   33.6860 C.ar  230  TYR230     -0.0009
    140  CD2        9.5600  -12.4080   34.2960 C.ar  230  TYR230     -0.0009
    141  CE1        7.0860  -11.3500   34.7280 C.ar  230  TYR230      0.0417
    142  CE2        8.8080  -12.8750   35.3260 C.ar  230  TYR230      0.0417
    143  CZ         7.5720  -12.3500   35.5410 C.ar  230  TYR230      0.1957
    144  OH         6.8200  -12.8520   36.5790 O.3   230  TYR230     -0.2866
    145  N         10.2310  -10.3460   29.3640 N.am  231  GLY231     -0.1942
    146  CA        11.0320   -9.8620   28.2100 C.3   231  GLY231      0.2014
    147  C         12.0430   -8.9360   28.8460 C.2   231  GLY231      0.2639
    148  O         11.7150   -8.3060   29.8460 O.2   231  GLY231     -0.2714
    149  N         13.2020   -8.8870   28.2450 N.am  232  PHE232     -0.1959
    150  CA        14.2990   -8.0390   28.7420 C.3   232  PHE232      0.1771
    151  C         14.5490   -7.0050   27.6730 C.2   232  PHE232      0.2619
    152  O         14.4180   -7.2650   26.4750 O.2   232  PHE232     -0.2715
    153  CB        15.6250   -8.8790   29.0020 C.3   232  PHE232      0.0574
    154  CG        15.3770   -9.7010   30.2740 C.ar  232  PHE232     -0.0200
    155  CD1       14.6410  -10.8700   30.2270 C.ar  232  PHE232     -0.0042
    156  CD2       15.8390   -9.2660   31.4840 C.ar  232  PHE232     -0.0042
    157  CE1       14.3700  -11.5770   31.3850 C.ar  232  PHE232     -0.0003
    158  CE2       15.5730   -9.9630   32.6450 C.ar  232  PHE232     -0.0003
    159  CZ        14.8330  -11.1250   32.6020 C.ar  232  PHE232     -0.0000
    160  N         14.9040   -5.8530   28.1790 N.am  233  TYR233     -0.1974
    161  CA        15.1910   -4.6700   27.3360 C.3   233  TYR233      0.1639
    162  C         16.4620   -3.9310   27.7080 C.2   233  TYR233      0.2290
    163  O         16.8120   -3.8880   28.8680 O.2   233  TYR233     -0.2864
    164  CB        14.0010   -3.6670   27.4670 C.3   233  TYR233      0.0560
    165  CG        12.6480   -4.3360   27.2080 C.ar  233  TYR233     -0.0198
    166  CD1       12.0430   -5.1780   28.1310 C.ar  233  TYR233     -0.0009
    167  CD2       12.0350   -4.1030   25.9890 C.ar  233  TYR233     -0.0009
    168  CE1       10.8410   -5.7730   27.8100 C.ar  233  TYR233      0.0417
    169  CE2       10.8620   -4.6800   25.6880 C.ar  233  TYR233      0.0417
    170  CZ        10.2750   -5.5080   26.5910 C.ar  233  TYR233      0.1957
    171  OH         9.0630   -6.0560   26.1890 O.3   233  TYR233     -0.2866
@<TRIPOS>BOND
     1     7     6    1
     2     1     2    1
     3     8     6    1
     4     6     5    1
     5     5     2    1
     6     2     3    1
     7     3     9   am
     8     3     4    2
     9    46    47    1
    10    46    45    1
    11    46    49    1
    12    34    33    2
    13    47    48    2
    14     9    10    1
    15    12    11    2
    16    50    49    1
    17    50    51    1
    18    33    32    1
    19    28    27    2
    20    52    51    1
    21    52    53    1
    22    11    10    1
    23    10    13    1
    24    27    26    1
    25    13    14    1
    26    32    35    1
    27    32    31    1
    28    35    36    1
    29    80    79   ar
    30    85    84    2
    31    14    30    1
    32    83    84    1
    33    83    82    1
    34    29    26    1
    35    29    30    1
    36    26    25    1
    37    81    79   ar
    38    36    38   ar
    39    36    37   ar
    40    79    78    1
    41    41    38   ar
    42    41    43   ar
    43    82    75   am
    44    76    75    2
    45    38    40   ar
    46    37    39   ar
    47    75    74    1
    48    18    17    2
    49    43    44   ar
    50    25    17   am
    51    77    78    1
    52    77    74    1
    53    89    88    2
    54    17    16    1
    55    40    39   ar
    56    40    42   ar
    57    74    73    1
    58    44    42   ar
    59    88    87    1
    60    86    87    1
    61    90    91    1
    62    90    87    1
    63    16    15    1
    64    16    19    1
    65    73    69   am
    66    70    69    2
    67    22    24   ar
    68    22    20   ar
    69    69    68    1
    70    24    23   ar
    71    19    20    1
    72    20    21   ar
    73    72    71    1
    74    72   132    1
    75    71    68    1
    76    23    21   ar
    77    68    67    1
    78    67    64   am
    79   132   131    1
    80    95    94    2
    81    96    98    1
    82    96    97    1
    83    96    93    1
    84    64    63    1
    85    64    65    2
    86    63    66    1
    87    63    62    1
    88   131   128    1
    89    94    93    1
    90    94    99   am
    91   102   101    2
    92    92    93    1
    93    57    56    2
    94   101   100    1
    95   101   105   am
    96   100    99    1
    97   100   103    1
    98    62    56   am
    99    56    55    1
   100   128   127    1
   101   128   129    1
   102   127   125   am
   103   125   124    1
   104   125   126    2
   105   124   123    1
   106   130   129    2
   107   105   106    1
   108   106   109    1
   109   106   107    1
   110   103   104    1
   111   109   110    1
   112   122   121    2
   113    55    54    1
   114    55    58    1
   115   119   107   am
   116   119   120    1
   117   107   108    2
   118    58    59    1
   119   169   167   ar
   120   169   170   ar
   121    61    59   ar
   122    59    60   ar
   123   167   165   ar
   124   121   120    1
   125   171   170    1
   126   110   111   ar
   127   110   112   ar
   128   152   151    2
   129   111   113   ar
   130   170   168   ar
   131   165   164    1
   132   165   166   ar
   133   161   164    1
   134   161   162    1
   135   161   160    1
   136   112   115   ar
   137   112   114   ar
   138   151   160   am
   139   151   150    1
   140   162   163    2
   141   168   166   ar
   142   113   114   ar
   143   115   117   ar
   144   146   147    1
   145   146   145    1
   146   149   150    1
   147   149   147   am
   148   114   116   ar
   149   150   153    1
   150   147   148    2
   151   153   154    1
   152   117   118   ar
   153   145   135   am
   154   136   135    2
   155   116   118   ar
   156   135   134    1
   157   155   154   ar
   158   155   157   ar
   159   154   156   ar
   160   134   133    1
   161   134   137    1
   162   157   159   ar
   163   156   158   ar
   164   137   138    1
   165   159   158   ar
   166   138   139   ar
   167   138   140   ar
   168   139   141   ar
   169   140   142   ar
   170   141   143   ar
   171   142   143   ar
   172   143   144    1
