@<TRIPOS>MOLECULE
tmp/1c1wB00.pdb
 182 181 0 0 0
SMALL
GASTEIGER

@<TRIPOS>ATOM
      1  N         13.6610   -9.4260    3.3280 N.3    25  GLU25      -0.1231
      2  CA        12.9440   -9.8760    4.5750 C.3    25  GLU25       0.1699
      3  C         13.1620   -8.8850    5.7460 C.2    25  GLU25       0.2592
      4  O         14.1600   -8.1880    5.8060 O.2    25  GLU25      -0.2718
      5  CB        13.4510  -11.2780    4.9900 C.3    25  GLU25       0.0402
      6  CG        14.9840  -11.2670    4.9270 C.3    25  GLU25       0.1161
      7  CD        15.5690  -12.5770    5.4870 C.2    25  GLU25       0.3649
      8  OE1       15.0540  -13.6210    5.1120 O.co2  25  GLU25      -0.2457
      9  OE2       16.5100  -12.4570    6.2580 O.co2  25  GLU25      -0.2457
     10  N         12.2040   -8.9020    6.6320 N.am   26  LEU26      -0.1966
     11  CA        12.1910   -8.0400    7.8440 C.3    26  LEU26       0.1728
     12  C         13.3140   -8.6040    8.6610 C.2    26  LEU26       0.2616
     13  O         13.3940   -9.8080    8.7750 O.2    26  LEU26      -0.2715
     14  CB        10.8020   -8.2000    8.5440 C.3    26  LEU26       0.0311
     15  CG        10.7850   -7.7420   10.0050 C.3    26  LEU26       0.0022
     16  CD1       11.1100   -6.2460   10.0710 C.3    26  LEU26       0.0001
     17  CD2        9.3740   -7.9910   10.5810 C.3    26  LEU26       0.0001
     18  N         14.1340   -7.7570    9.2170 N.am   27  LEU27      -0.1963
     19  CA        15.2740   -8.2390   10.0280 C.3    27  LEU27       0.1728
     20  C         14.9870   -7.9430   11.4730 C.2    27  LEU27       0.2616
     21  O         15.0040   -8.8570   12.2750 O.2    27  LEU27      -0.2715
     22  CB        16.5090   -7.5110    9.6310 C.3    27  LEU27       0.0311
     23  CG        17.6870   -8.4240    9.5920 C.3    27  LEU27       0.0022
     24  CD1       17.5390   -9.4510    8.4510 C.3    27  LEU27       0.0001
     25  CD2       18.8550   -7.5200    9.2330 C.3    27  LEU27       0.0001
     26  N         14.7480   -6.6900   11.7420 N.am   28  CYS28      -0.1968
     27  CA        14.4490   -6.2110   13.1270 C.3    28  CYS28       0.1712
     28  C         13.6660   -4.9080   13.0770 C.2    28  CYS28       0.2296
     29  O         13.3280   -4.4120   12.0160 O.2    28  CYS28      -0.2864
     30  CB        15.7820   -5.9590   13.9300 C.3    28  CYS28       0.0983
     31  SG        16.6090   -7.3580   14.7130 S.3    28  CYS28      -0.0798
     32  N         22.6070   -7.0710   18.4160 N.3    43  HIS43      -0.1241
     33  CA        22.5760   -8.4340   17.8850 C.3    43  HIS43       0.1621
     34  C         21.7150   -8.6110   16.6740 C.2    43  HIS43       0.2264
     35  O         21.6290   -9.6910   16.1340 O.2    43  HIS43      -0.2867
     36  CB        22.1700   -9.3130   19.0010 C.3    43  HIS43       0.0745
     37  CG        20.7170   -9.3080   19.2550 C.ar   43  HIS43       0.0817
     38  ND1       20.0590   -8.6020   20.1150 N.ar   43  HIS43      -0.2268
     39  CD2       19.7860  -10.0750   18.6240 C.ar   43  HIS43       0.1154
     40  CE1       18.8070   -8.8910   20.0430 C.ar   43  HIS43       0.1986
     41  NE2       18.6180   -9.7990   19.1280 N.ar   43  HIS43      -0.2212
     42  N         26.0070  -11.2450   15.4220 N.3    47  TYR47      -0.1241
     43  CA        25.7750  -12.3610   16.3730 C.3    47  TYR47       0.1605
     44  C         26.4940  -13.5740   15.7790 C.2    47  TYR47       0.2264
     45  O         25.8790  -14.3870   15.1150 O.2    47  TYR47      -0.2867
     46  CB        24.2990  -12.6380   16.5060 C.3    47  TYR47       0.0534
     47  CG        24.0950  -13.5370   17.7080 C.ar   47  TYR47      -0.0201
     48  CD1       24.6550  -13.2290   18.9270 C.ar   47  TYR47      -0.0009
     49  CD2       23.3380  -14.6640   17.5880 C.ar   47  TYR47      -0.0009
     50  CE1       24.4600  -14.0390   20.0150 C.ar   47  TYR47       0.0417
     51  CE2       23.1420  -15.4710   18.6730 C.ar   47  TYR47       0.0417
     52  CZ        23.6990  -15.1660   19.8890 C.ar   47  TYR47       0.1957
     53  OH        23.4940  -15.9950   20.9670 O.3    47  TYR47      -0.2866
     54  N         25.5100  -17.3190   15.2200 N.3    50  TRP50      -0.1241
     55  CA        24.6910  -17.7230   14.0330 C.3    50  TRP50       0.1605
     56  C         25.2160  -17.0930   12.7900 C.2    50  TRP50       0.2264
     57  O         24.4680  -16.8610   11.8680 O.2    50  TRP50      -0.2867
     58  CB        23.2570  -17.2870   14.1940 C.3    50  TRP50       0.0550
     59  CG        22.6660  -17.8350   15.4800 C.ar   50  TRP50       0.0003
     60  CD1       23.0780  -18.9320   16.1780 C.ar   50  TRP50       0.0946
     61  CD2       21.6000  -17.2950   16.1070 C.ar   50  TRP50       0.0152
     62  NE1       22.2240  -18.9800   17.1880 N.ar   50  TRP50      -0.2442
     63  CE2       21.2960  -18.0400   17.2470 C.ar   50  TRP50       0.0810
     64  CE3       20.8420  -16.1640   15.7750 C.ar   50  TRP50       0.0012
     65  CZ2       20.2260  -17.6610   18.0550 C.ar   50  TRP50       0.0191
     66  CZ3       19.7690  -15.7840   16.5740 C.ar   50  TRP50       0.0001
     67  CH2       19.4610  -16.5360   17.7150 C.ar   50  TRP50       0.0015
     68  N         25.9210  -14.1260   11.9950 N.3    52  LYS52      -0.1245
     69  CA        25.2060  -12.8800   11.5510 C.3    52  LYS52       0.1561
     70  C         26.1820  -11.7140   11.7040 C.2    52  LYS52       0.2260
     71  O         26.6770  -11.4780   12.7910 O.2    52  LYS52      -0.2867
     72  CB        23.9850  -12.6600   12.4300 C.3    52  LYS52       0.0271
     73  CG        23.2250  -11.4360   11.8560 C.3    52  LYS52       0.0035
     74  CD        22.1000  -11.0130   12.8200 C.3    52  LYS52       0.0206
     75  CE        20.9710  -12.0360   12.8430 C.3    52  LYS52       0.1093
     76  NZ        19.9760  -11.6620   13.8790 N.3    52  LYS52      -0.1314
     77  N          4.1700   -9.7620   25.0670 N.3   192  ASP192     -0.1225
     78  CA         5.6570   -9.8500   25.0160 C.3   192  ASP192      0.1805
     79  C          6.0640   -9.5630   23.6110 C.2   192  ASP192      0.2598
     80  O          5.2730   -9.5090   22.6960 O.2   192  ASP192     -0.2718
     81  CB         6.1720  -11.2920   25.4160 C.3   192  ASP192      0.1424
     82  CG         7.7100  -11.4210   25.7610 C.2   192  ASP192      0.3668
     83  OD1        8.3690  -10.4390   26.0610 O.co2 192  ASP192     -0.2456
     84  OD2        8.1870  -12.5460   25.7220 O.co2 192  ASP192     -0.2456
     85  N          7.3200   -9.3720   23.4630 N.am  193  ALA193     -0.1966
     86  CA         7.8940   -9.1020   22.1430 C.3   193  ALA193      0.1728
     87  C          8.1890  -10.5520   21.7320 C.2   193  ALA193      0.2616
     88  O          8.0340  -11.4690   22.5230 O.2   193  ALA193     -0.2715
     89  CB         9.2330   -8.3300   22.2470 C.3   193  ALA193      0.0334
     90  N          8.6020  -10.7280   20.5250 N.am  194  CYS194     -0.1954
     91  CA         8.9100  -12.0940   20.0790 C.3   194  CYS194      0.1843
     92  C          9.8730  -11.9220   18.9340 C.2   194  CYS194      0.2625
     93  O         10.2820  -10.8040   18.6430 O.2   194  CYS194     -0.2714
     94  CB         7.6120  -12.8240   19.6430 C.3   194  CYS194      0.0997
     95  SG         7.7840  -14.6150   19.4520 S.3   194  CYS194     -0.0797
     96  N         10.2190  -13.0080   18.3140 N.am  195  GLU195     -0.1963
     97  CA        11.1710  -12.8910   17.1780 C.3   195  GLU195      0.1733
     98  C         10.6140  -11.9300   16.1420 C.2   195  GLU195      0.2616
     99  O          9.4420  -12.0190   15.8290 O.2   195  GLU195     -0.2715
    100  CB        11.4200  -14.2920   16.5150 C.3   195  GLU195      0.0429
    101  CG        12.7080  -14.9140   17.2130 C.3   195  GLU195      0.1163
    102  CD        13.4940  -15.8330   16.2550 C.2   195  GLU195      0.3649
    103  OE1       13.4920  -15.5490   15.0660 O.co2 195  GLU195     -0.2457
    104  OE2       14.0760  -16.7750   16.7660 O.co2 195  GLU195     -0.2457
    105  N         11.4910  -11.0570   15.6730 N.am  196  GLY196     -0.1955
    106  CA        11.1530  -10.0160   14.6400 C.3   196  GLY196      0.1869
    107  C         11.0120   -8.6110   15.2560 C.2   196  GLY196      0.2309
    108  O         11.1540   -7.6170   14.5780 O.2   196  GLY196     -0.2863
    109  N         12.8710   -7.4860   17.8340 N.3   198  SER198     -0.1217
    110  CA        14.1530   -7.0740   18.4480 C.3   198  SER198      0.1889
    111  C         14.5910   -5.7720   17.8240 C.2   198  SER198      0.2288
    112  O         14.2260   -5.5300   16.6910 O.2   198  SER198     -0.2866
    113  CB        15.1950   -8.1620   18.1960 C.3   198  SER198      0.2089
    114  OG        14.5070   -9.2980   18.7190 O.3   198  SER198     -0.2183
    115  N         14.3560   -3.6900   22.5160 N.3   218  VAL218     -0.1231
    116  CA        13.9700   -5.1260   22.7100 C.3   218  VAL218      0.1692
    117  C         15.3230   -5.8410   22.5430 C.2   218  VAL218      0.2593
    118  O         15.9730   -5.7030   21.5170 O.2   218  VAL218     -0.2718
    119  CB        12.9200   -5.5440   21.5930 C.3   218  VAL218      0.0266
    120  CG1       12.4660   -7.0220   21.7850 C.3   218  VAL218      0.0020
    121  CG2       11.6120   -4.6990   21.7040 C.3   218  VAL218      0.0020
    122  N         15.6790   -6.5830   23.5650 N.am  219  SER219     -0.1938
    123  CA        16.9790   -7.3280   23.5830 C.3   219  SER219      0.2055
    124  C         16.8530   -8.8420   23.5000 C.2   219  SER219      0.2643
    125  O         17.2600   -9.3830   22.4920 O.2   219  SER219     -0.2714
    126  CB        17.6830   -6.8680   24.8770 C.3   219  SER219      0.2130
    127  OG        19.0410   -7.2060   24.7060 O.3   219  SER219     -0.2179
    128  N         16.3250   -9.4660   24.5190 N.am  220  TRP220     -0.1959
    129  CA        16.1890  -10.9410   24.4660 C.3   220  TRP220      0.1771
    130  C         15.0820  -11.4380   25.3770 C.2   220  TRP220      0.2620
    131  O         14.4550  -10.7220   26.1480 O.2   220  TRP220     -0.2715
    132  CB        17.5390  -11.6310   24.8680 C.3   220  TRP220      0.0590
    133  CG        18.0920  -11.1930   26.2530 C.ar  220  TRP220      0.0006
    134  CD1       18.8720  -10.0980   26.4640 C.ar  220  TRP220      0.0946
    135  CD2       17.8800  -11.8250   27.4460 C.ar  220  TRP220      0.0152
    136  NE1       19.0840  -10.1410   27.7650 N.ar  220  TRP220     -0.2442
    137  CE2       18.5360  -11.1380   28.4570 C.ar  220  TRP220      0.0810
    138  CE3       17.1520  -12.9690   27.7690 C.ar  220  TRP220      0.0012
    139  CZ2       18.4570  -11.6070   29.7800 C.ar  220  TRP220      0.0191
    140  CZ3       17.0750  -13.4270   29.0790 C.ar  220  TRP220      0.0001
    141  CH2       17.7260  -12.7440   30.0850 C.ar  220  TRP220      0.0015
    142  N         14.8360  -12.7070   25.2550 N.am  221  GLY221     -0.1954
    143  CA        13.7910  -13.3370   26.0800 C.3   221  GLY221      0.1869
    144  C         14.0190  -14.8350   25.9000 C.2   221  GLY221      0.2309
    145  O         14.8360  -15.2460   25.0990 O.2   221  GLY221     -0.2863
    146  N         11.9510  -17.4940   24.7620 N.3   223  GLY223     -0.1210
    147  CA        10.6490  -17.8330   24.1330 C.3   223  GLY223      0.1956
    148  C          9.8630  -16.5210   24.0330 C.2   223  GLY223      0.2612
    149  O         10.4130  -15.4440   24.1740 O.2   223  GLY223     -0.2717
    150  N          8.5960  -16.6290   23.7940 N.am  224  CYS224     -0.1970
    151  CA         7.7130  -15.4470   23.6740 C.3   224  CYS224      0.1712
    152  C          6.4030  -15.6380   24.4720 C.2   224  CYS224      0.2296
    153  O          5.5510  -16.4290   24.1150 O.2   224  CYS224     -0.2864
    154  CB         7.3870  -15.2430   22.2540 C.3   224  CYS224      0.0983
    155  SG         8.7910  -15.2030   21.1250 S.3   224  CYS224     -0.0798
    156  N         10.8260  -10.3540   29.2900 N.3   231  GLY231     -0.1210
    157  CA        11.5890   -9.8520   28.1060 C.3   231  GLY231      0.1956
    158  C         12.6000   -8.8960   28.7160 C.2   231  GLY231      0.2612
    159  O         12.2960   -8.1860   29.6630 O.2   231  GLY231     -0.2717
    160  N         13.7640   -8.8980   28.1600 N.am  232  PHE232     -0.1962
    161  CA        14.8220   -8.0240   28.6750 C.3   232  PHE232      0.1771
    162  C         15.0340   -6.9790   27.6360 C.2   232  PHE232      0.2619
    163  O         14.9650   -7.2710   26.4480 O.2   232  PHE232     -0.2715
    164  CB        16.1560   -8.8830   28.9530 C.3   232  PHE232      0.0574
    165  CG        15.8830   -9.6230   30.2710 C.ar  232  PHE232     -0.0200
    166  CD1       15.1250  -10.7720   30.2730 C.ar  232  PHE232     -0.0042
    167  CD2       16.3510   -9.1360   31.4740 C.ar  232  PHE232     -0.0042
    168  CE1       14.8360  -11.4220   31.4520 C.ar  232  PHE232     -0.0003
    169  CE2       16.0610   -9.7850   32.6510 C.ar  232  PHE232     -0.0003
    170  CZ        15.3030  -10.9280   32.6420 C.ar  232  PHE232     -0.0000
    171  N         15.2900   -5.7910   28.1250 N.am  233  TYR233     -0.1974
    172  CA        15.5170   -4.6230   27.2500 C.3   233  TYR233      0.1639
    173  C         16.8110   -3.8810   27.5400 C.2   233  TYR233      0.2290
    174  O         17.2010   -3.7800   28.6820 O.2   233  TYR233     -0.2864
    175  CB        14.3050   -3.6770   27.4400 C.3   233  TYR233      0.0560
    176  CG        12.9480   -4.3350   27.1130 C.ar  233  TYR233     -0.0198
    177  CD1       12.2250   -5.1190   28.0340 C.ar  233  TYR233     -0.0009
    178  CD2       12.4290   -4.1420   25.8630 C.ar  233  TYR233     -0.0009
    179  CE1       11.0050   -5.6850   27.6650 C.ar  233  TYR233      0.0417
    180  CE2       11.2110   -4.7140   25.5060 C.ar  233  TYR233      0.0417
    181  CZ        10.4960   -5.4810   26.3870 C.ar  233  TYR233      0.1957
    182  OH         9.3180   -6.0330   25.9370 O.3   233  TYR233     -0.2866
@<TRIPOS>BOND
     1     1     2    1
     2     2     5    1
     3     2     3    1
     4     6     5    1
     5     6     7    1
     6     8     7   ar
     7     7     9   ar
     8     3     4    2
     9     3    10   am
    10    10    11    1
    11    11    14    1
    12    11    12    1
    13    24    23    1
    14    14    15    1
    15    12    13    2
    16    12    18   am
    17    18    19    1
    18    25    23    1
    19    23    22    1
    20    22    19    1
    21    15    16    1
    22    15    17    1
    23    19    20    1
    24    20    26   am
    25    20    21    2
    26    69    70    1
    27    69    68    1
    28    69    72    1
    29    70    71    2
    30    26    27    1
    31    73    72    1
    32    73    74    1
    33    57    56    2
    34    29    28    2
    35    56    55    1
    36    74    75    1
    37    75    76    1
    38    28    27    1
    39    27    30    1
    40    30    31    1
    41    55    58    1
    42    55    54    1
    43    58    59    1
    44   108   107    2
    45   106   107    1
    46   106   105    1
    47   103   102   ar
    48    45    44    2
    49    42    43    1
    50    59    61   ar
    51    59    60   ar
    52   105    98   am
    53    64    61   ar
    54    64    66   ar
    55    44    43    1
    56    99    98    2
    57    61    63   ar
    58    35    34    2
    59    98    97    1
    60    60    62   ar
    61   102   104   ar
    62   102   101    1
    63    43    46    1
    64    46    47    1
    65   100    97    1
    66   100   101    1
    67    66    67   ar
    68    34    33    1
    69   112   111    2
    70    97    96    1
    71    62    63   ar
    72    63    65   ar
    73    49    47   ar
    74    49    51   ar
    75    47    48   ar
    76    67    65   ar
    77   111   110    1
    78   109   110    1
    79    33    32    1
    80    33    36    1
    81   113   110    1
    82   113   114    1
    83    96    92   am
    84    39    41   ar
    85    39    37   ar
    86    93    92    2
    87    51    52   ar
    88    48    50   ar
    89    92    91    1
    90    36    37    1
    91    41    40   ar
    92    37    38   ar
    93    95    94    1
    94    95   155    1
    95    94    91    1
    96    52    50   ar
    97    52    53    1
    98    40    38   ar
    99    91    90    1
   100    90    87   am
   101   155   154    1
   102   118   117    2
   103   119   121    1
   104   119   120    1
   105   119   116    1
   106    87    86    1
   107    87    88    2
   108    86    89    1
   109    86    85    1
   110   154   151    1
   111   125   124    2
   112   115   116    1
   113   117   116    1
   114   117   122   am
   115    80    79    2
   116    85    79   am
   117   124   123    1
   118   124   128   am
   119   122   123    1
   120   123   126    1
   121    79    78    1
   122   151   150    1
   123   151   152    1
   124   150   148   am
   125   148   147    1
   126   148   149    2
   127   153   152    2
   128   147   146    1
   129   129   128    1
   130   129   132    1
   131   129   130    1
   132   127   126    1
   133   132   133    1
   134    78    77    1
   135    78    81    1
   136   145   144    2
   137   142   130   am
   138   142   143    1
   139   130   131    2
   140    81    82    1
   141   180   178   ar
   142   180   181   ar
   143    84    82   ar
   144    82    83   ar
   145   178   176   ar
   146   144   143    1
   147   182   181    1
   148   133   134   ar
   149   133   135   ar
   150   181   179   ar
   151   163   162    2
   152   134   136   ar
   153   176   175    1
   154   176   177   ar
   155   172   175    1
   156   172   173    1
   157   172   171    1
   158   135   138   ar
   159   135   137   ar
   160   173   174    2
   161   162   171   am
   162   162   161    1
   163   179   177   ar
   164   136   137   ar
   165   138   140   ar
   166   157   158    1
   167   157   156    1
   168   160   161    1
   169   160   158   am
   170   137   139   ar
   171   161   164    1
   172   158   159    2
   173   164   165    1
   174   140   141   ar
   175   139   141   ar
   176   165   166   ar
   177   165   167   ar
   178   166   168   ar
   179   168   170   ar
   180   167   169   ar
   181   170   169   ar
