@<TRIPOS>MOLECULE
tmp/1c1yA00.pdb
 188 184 0 0 0
SMALL
GASTEIGER

@<TRIPOS>ATOM
      1  N          4.2360   31.2930   30.4030 N.3    12  GLY12      -0.1210
      2  CA         2.8560   30.9560   30.6950 C.3    12  GLY12       0.1956
      3  C          1.8560   31.1370   29.5710 C.2    12  GLY12       0.2612
      4  O          1.9540   32.0670   28.7710 O.2    12  GLY12      -0.2717
      5  N          0.9170   30.1990   29.4880 N.am   13  GLY13      -0.1942
      6  CA        -0.1330   30.2670   28.4900 C.3    13  GLY13       0.2014
      7  C          0.1860   29.8560   27.0680 C.2    13  GLY13       0.2639
      8  O         -0.6930   29.9290   26.2190 O.2    13  GLY13      -0.2714
      9  N          1.4080   29.3970   26.8010 N.am   14  VAL14      -0.1963
     10  CA         1.7710   28.9950   25.4390 C.3    14  VAL14       0.1727
     11  C          1.1670   27.6630   24.9870 C.2    14  VAL14       0.2617
     12  O          1.0610   27.4070   23.7880 O.2    14  VAL14      -0.2715
     13  CB         3.3040   28.9500   25.2370 C.3    14  VAL14       0.0290
     14  CG1        3.9080   30.3250   25.5000 C.3    14  VAL14       0.0023
     15  CG2        3.9260   27.9010   26.1430 C.3    14  VAL14       0.0023
     16  N          0.7940   26.8140   25.9420 N.am   15  GLY15      -0.1940
     17  CA         0.1980   25.5310   25.6010 C.3    15  GLY15       0.2014
     18  C          1.0530   24.3080   25.8960 C.2    15  GLY15       0.2639
     19  O          0.8550   23.2560   25.2900 O.2    15  GLY15      -0.2714
     20  N          2.0060   24.4460   26.8130 N.am   16  LYS16      -0.1963
     21  CA         2.8870   23.3450   27.2010 C.3    16  LYS16       0.1728
     22  C          2.0640   22.1530   27.6950 C.2    16  LYS16       0.2617
     23  O          2.2840   21.0170   27.2750 O.2    16  LYS16      -0.2715
     24  CB         3.8520   23.7960   28.3000 C.3    16  LYS16       0.0311
     25  CG         4.8430   24.8760   27.8540 C.3    16  LYS16       0.0038
     26  CD         5.8480   25.1990   28.9610 C.3    16  LYS16       0.0206
     27  CE         5.1620   25.7540   30.1980 C.3    16  LYS16       0.1093
     28  NZ         4.4290   27.0170   29.9180 N.3    16  LYS16      -0.1314
     29  N          1.1060   22.4290   28.5730 N.am   17  SER17      -0.1936
     30  CA         0.2260   21.3900   29.1160 C.3    17  SER17       0.2055
     31  C         -0.7190   20.8250   28.0760 C.2    17  SER17       0.2642
     32  O         -0.9330   19.6110   28.0210 O.2    17  SER17      -0.2714
     33  CB        -0.5950   21.9380   30.2770 C.3    17  SER17       0.2130
     34  OG         0.2300   22.1090   31.3990 O.3    17  SER17      -0.2179
     35  N         -1.3180   21.7050   27.2780 N.am   18  ALA18      -0.1977
     36  CA        -2.2390   21.2630   26.2330 C.3    18  ALA18       0.1597
     37  C         -1.5360   20.3200   25.2520 C.2    18  ALA18       0.2287
     38  O         -2.1050   19.3050   24.8480 O.2    18  ALA18      -0.2864
     39  CB        -2.8280   22.4580   25.4990 C.3    18  ALA18       0.0319
     40  N         -8.0020   17.4630   24.4430 N.3    28  PHE28      -0.1227
     41  CA        -7.6370   18.8730   24.4560 C.3    28  PHE28       0.1736
     42  C         -8.1400   19.6150   25.6900 C.2    28  PHE28       0.2595
     43  O         -9.3400   19.6420   25.9650 O.2    28  PHE28      -0.2718
     44  CB        -8.1470   19.5730   23.1900 C.3    28  PHE28       0.0547
     45  CG        -7.7840   21.0320   23.1180 C.ar   28  PHE28      -0.0202
     46  CD1       -6.4610   21.4420   23.2610 C.ar   28  PHE28      -0.0042
     47  CD2       -8.7650   21.9970   22.9150 C.ar   28  PHE28      -0.0042
     48  CE1       -6.1200   22.7880   23.2040 C.ar   28  PHE28      -0.0003
     49  CE2       -8.4340   23.3470   22.8560 C.ar   28  PHE28      -0.0003
     50  CZ        -7.1080   23.7440   23.0010 C.ar   28  PHE28      -0.0000
     51  N         -7.2130   20.2230   26.4240 N.am   29  VAL29      -0.1966
     52  CA        -7.5640   20.9870   27.6160 C.3    29  VAL29       0.1727
     53  C         -7.9320   22.4030   27.1710 C.2    29  VAL29       0.2616
     54  O         -7.0730   23.1680   26.7350 O.2    29  VAL29      -0.2715
     55  CB        -6.3910   21.0380   28.6270 C.3    29  VAL29       0.0290
     56  CG1       -6.7980   21.8180   29.8650 C.3    29  VAL29       0.0023
     57  CG2       -5.9720   19.6300   29.0160 C.3    29  VAL29       0.0023
     58  N         -9.2200   22.7260   27.2420 N.am   30  GLU30      -0.1963
     59  CA        -9.7050   24.0410   26.8350 C.3    30  GLU30       0.1733
     60  C         -9.4650   25.1330   27.8680 C.2    30  GLU30       0.2616
     61  O         -9.1750   26.2740   27.5120 O.2    30  GLU30      -0.2715
     62  CB       -11.1880   23.9730   26.4550 C.3    30  GLU30       0.0429
     63  CG       -11.4120   23.7480   24.9690 C.3    30  GLU30       0.1163
     64  CD       -12.7700   23.1520   24.6490 C.2    30  GLU30       0.3649
     65  OE1      -12.8530   21.9120   24.5050 O.co2  30  GLU30      -0.2457
     66  OE2      -13.7490   23.9190   24.5250 O.co2  30  GLU30      -0.2457
     67  N         -9.5780   24.7820   29.1440 N.am   31  LYS31      -0.1963
     68  CA        -9.3670   25.7410   30.2210 C.3    31  LYS31       0.1728
     69  C         -7.8930   25.9570   30.5360 C.2    31  LYS31       0.2616
     70  O         -7.0640   25.0720   30.3220 O.2    31  LYS31      -0.2715
     71  CB       -10.0850   25.2890   31.4900 C.3    31  LYS31       0.0311
     72  CG       -11.5290   25.7300   31.5790 C.3    31  LYS31       0.0038
     73  CD       -12.1050   25.4080   32.9500 C.3    31  LYS31       0.0206
     74  CE       -13.2900   26.3040   33.2660 C.3    31  LYS31       0.1093
     75  NZ       -13.9100   25.9690   34.5800 N.3    31  LYS31      -0.1314
     76  N         -7.5740   27.1420   31.0430 N.am   32  TYR32      -0.1960
     77  CA        -6.2050   27.4630   31.4100 C.3    32  TYR32       0.1771
     78  C         -6.0210   27.4030   32.9230 C.2    32  TYR32       0.2620
     79  O         -6.4600   28.2990   33.6480 O.2    32  TYR32      -0.2715
     80  CB        -5.8030   28.8470   30.8800 C.3    32  TYR32       0.0574
     81  CG        -4.4040   29.3000   31.2740 C.ar   32  TYR32      -0.0198
     82  CD1       -3.4490   28.3900   31.7420 C.ar   32  TYR32      -0.0009
     83  CD2       -4.0440   30.6470   31.2040 C.ar   32  TYR32      -0.0009
     84  CE1       -2.1810   28.8080   32.1330 C.ar   32  TYR32       0.0417
     85  CE2       -2.7710   31.0770   31.5920 C.ar   32  TYR32       0.0417
     86  CZ        -1.8470   30.1510   32.0570 C.ar   32  TYR32       0.1957
     87  OH        -0.5970   30.5700   32.4560 O.3    32  TYR32      -0.2866
     88  N         -5.3900   26.3250   33.3840 N.am   33  ASP33      -0.1958
     89  CA        -5.0860   26.1330   34.7980 C.3    33  ASP33       0.1825
     90  C         -3.5630   26.0780   34.8600 C.2    33  ASP33       0.2464
     91  O         -2.9570   25.0980   34.4240 O.2    33  ASP33      -0.2730
     92  CB        -5.6830   24.8190   35.3180 C.3    33  ASP33       0.1450
     93  CG        -5.4750   24.6250   36.8240 C.2    33  ASP33       0.3671
     94  OD1       -4.7610   25.4300   37.4650 O.co2  33  ASP33      -0.2456
     95  OD2       -6.0300   23.6520   37.3780 O.co2  33  ASP33      -0.2456
     96  N         -2.9290   27.1360   35.3970 N.am   34  PRO34      -0.2715
     97  CA        -1.4740   27.2520   35.5280 C.3    34  PRO34       0.1536
     98  C         -0.8060   26.0670   36.2150 C.2    34  PRO34       0.2599
     99  O         -1.2030   25.6540   37.3110 O.2    34  PRO34      -0.2715
    100  CB        -1.3070   28.5390   36.3310 C.3    34  PRO34       0.0310
    101  CG        -2.4790   29.3560   35.8900 C.3    34  PRO34       0.0237
    102  CD        -3.5900   28.3390   35.9350 C.3    34  PRO34       0.0939
    103  N          0.2250   25.5380   35.5630 N.am   35  THR35      -0.1951
    104  CA         0.9740   24.4010   36.0830 C.3    35  THR35       0.1897
    105  C          1.9410   24.7730   37.1850 C.2    35  THR35       0.2313
    106  O          2.5430   25.8500   37.1650 O.2    35  THR35      -0.2863
    107  CB         1.8010   23.7300   34.9550 C.3    35  THR35       0.1794
    108  OG1        0.9060   23.1930   33.9880 O.3    35  THR35      -0.2208
    109  CG2        2.6700   22.6070   35.4870 C.3    35  THR35       0.0378
    110  N          6.2730   18.4700   32.5960 N.3    57  ASP57      -0.1225
    111  CA         5.5650   19.6670   32.1790 C.3    57  ASP57       0.1805
    112  C          5.8420   20.7140   33.2590 C.2    57  ASP57       0.2598
    113  O          5.5020   20.5140   34.4280 O.2    57  ASP57      -0.2718
    114  CB         4.0770   19.3490   32.0840 C.3    57  ASP57       0.1424
    115  CG         3.2580   20.5110   31.5870 C.2    57  ASP57       0.3668
    116  OD1        2.0280   20.4500   31.7650 O.co2  57  ASP57      -0.2456
    117  OD2        3.8260   21.4720   31.0190 O.co2  57  ASP57      -0.2456
    118  N          6.4450   21.8310   32.8640 N.am   58  THR58      -0.1953
    119  CA         6.8230   22.8710   33.8140 C.3    58  THR58       0.1897
    120  C          5.9320   24.1030   33.9380 C.2    58  THR58       0.2313
    121  O          5.0990   24.3770   33.0840 O.2    58  THR58      -0.2863
    122  CB         8.2610   23.3460   33.5420 C.3    58  THR58       0.1794
    123  OG1        8.3260   23.9680   32.2490 O.3    58  THR58      -0.2208
    124  CG2        9.2190   22.1600   33.5770 C.3    58  THR58       0.0378
    125  N          5.0320   27.9160   33.7350 N.3    60  GLY60      -0.1210
    126  CA         5.4680   29.0060   32.8730 C.3    60  GLY60       0.1956
    127  C          6.0850   30.1420   33.6710 C.2    60  GLY60       0.2612
    128  O          6.8950   30.9210   33.1580 O.2    60  GLY60      -0.2717
    129  N          5.6860   30.2450   34.9330 N.am   61  THR61      -0.1952
    130  CA         6.2080   31.2790   35.8130 C.3    61  THR61       0.1897
    131  C          6.6730   30.6810   37.1340 C.2    61  THR61       0.2313
    132  O          5.8710   30.1630   37.9070 O.2    61  THR61      -0.2863
    133  CB         5.1600   32.3730   36.0950 C.3    61  THR61       0.1794
    134  OG1        3.9070   31.7630   36.4410 O.3    61  THR61      -0.2208
    135  CG2        4.9870   33.2810   34.8720 C.3    61  THR61       0.0378
    136  N          3.7010   27.1240   19.0040 N.3   116  ASN116     -0.1225
    137  CA         2.3700   26.5670   19.2130 C.3   116  ASN116      0.1785
    138  C          1.2160   27.5280   18.9070 C.2   116  ASN116      0.2597
    139  O          1.4170   28.7380   18.7510 O.2   116  ASN116     -0.2718
    140  CB         2.2650   26.0280   20.6460 C.3   116  ASN116      0.1169
    141  CG         1.0460   25.1530   20.8570 C.2   116  ASN116      0.2627
    142  OD1        0.7200   24.3070   20.0250 O.2   116  ASN116     -0.2716
    143  ND2        0.3590   25.3630   21.9710 N.am  116  ASN116     -0.0877
    144  N          0.0090   26.9620   18.8400 N.am  117  LYS117     -0.1980
    145  CA        -1.2280   27.6830   18.5550 C.3   117  LYS117      0.1596
    146  C         -1.3100   28.1270   17.0950 C.2   117  LYS117      0.2287
    147  O         -1.9460   29.1350   16.7840 O.2   117  LYS117     -0.2864
    148  CB        -1.4100   28.8830   19.5030 C.3   117  LYS117      0.0298
    149  CG        -1.4360   28.5190   20.9840 C.3   117  LYS117      0.0038
    150  CD        -1.9220   29.6810   21.8470 C.3   117  LYS117      0.0206
    151  CE        -1.9680   29.2980   23.3150 C.3   117  LYS117      0.1093
    152  NZ        -2.4920   30.3890   24.1930 N.3   117  LYS117     -0.1314
    153  N         -3.1120   27.2380   14.8790 N.3   119  ASP119     -0.1225
    154  CA        -4.4840   27.2140   14.3770 C.3   119  ASP119      0.1805
    155  C         -5.0840   28.6240   14.4600 C.2   119  ASP119      0.2597
    156  O         -6.1270   28.9010   13.8680 O.2   119  ASP119     -0.2718
    157  CB        -5.3390   26.2350   15.1890 C.3   119  ASP119      0.1424
    158  CG        -5.3150   26.5350   16.6760 C.2   119  ASP119      0.3668
    159  OD1       -4.2650   26.3000   17.3150 O.co2 119  ASP119     -0.2456
    160  OD2       -6.3420   27.0140   17.2040 O.co2 119  ASP119     -0.2456
    161  N         -4.4190   29.5080   15.2010 N.am  120  LEU120     -0.1979
    162  CA        -4.8780   30.8870   15.3540 C.3   120  LEU120      0.1596
    163  C         -4.1350   31.8040   14.3810 C.2   120  LEU120      0.2287
    164  O         -3.5250   32.7940   14.7870 O.2   120  LEU120     -0.2864
    165  CB        -4.6580   31.3580   16.7950 C.3   120  LEU120      0.0297
    166  CG        -5.3060   30.5460   17.9220 C.3   120  LEU120      0.0022
    167  CD1       -5.0210   31.2080   19.2650 C.3   120  LEU120      0.0001
    168  CD2       -6.8080   30.4390   17.6920 C.3   120  LEU120      0.0001
    169  N         -0.1370   22.7180   16.9400 N.3   147  SER147     -0.1202
    170  CA        -1.4390   23.0880   17.4460 C.3   147  SER147      0.2020
    171  C         -1.9800   21.9560   18.3010 C.2   147  SER147      0.2619
    172  O         -2.2950   20.8750   17.7940 O.2   147  SER147     -0.2717
    173  CB        -2.4220   23.3750   16.3220 C.3   147  SER147      0.2103
    174  OG        -3.6920   23.6610   16.8780 O.3   147  SER147     -0.2182
    175  N         -2.0730   22.2070   19.6000 N.am  148  ALA148     -0.1965
    176  CA        -2.6030   21.2200   20.5320 C.3   148  ALA148      0.1728
    177  C         -4.0940   21.0320   20.2640 C.2   148  ALA148      0.2616
    178  O         -4.6470   19.9650   20.5190 O.2   148  ALA148     -0.2715
    179  CB        -2.3920   21.6860   21.9570 C.3   148  ALA148      0.0334
    180  N         -4.7290   22.0760   19.7330 N.am  149  LYS149     -0.1977
    181  CA        -6.1570   22.0550   19.4350 C.3   149  LYS149      0.1596
    182  C         -6.5100   21.2810   18.1680 C.2   149  LYS149      0.2287
    183  O         -7.4100   20.4380   18.1840 O.2   149  LYS149     -0.2864
    184  CB        -6.6930   23.4880   19.3460 C.3   149  LYS149      0.0298
    185  CG        -8.1960   23.5920   19.1130 C.3   149  LYS149      0.0038
    186  CD        -8.6790   25.0230   19.2870 C.3   149  LYS149      0.0206
    187  CE       -10.1660   25.1520   18.9800 C.3   149  LYS149      0.1093
    188  NZ       -10.4580   24.8400   17.5520 N.3   149  LYS149     -0.1314
@<TRIPOS>BOND
     1   156   155    2
     2   154   155    1
     3   154   153    1
     4   154   157    1
     5   163   164    2
     6   163   162    1
     7   155   161   am
     8   157   158    1
     9   161   162    1
    10   162   165    1
    11   173   174    1
    12   173   170    1
    13   158   160   ar
    14   158   159   ar
    15   147   146    2
    16   165   166    1
    17   169   170    1
    18   146   145    1
    19   170   171    1
    20   188   187    1
    21   168   166    1
    22   172   171    2
    23   166   167    1
    24   182   183    2
    25   182   181    1
    26   171   175   am
    27   145   144    1
    28   145   148    1
    29   139   138    2
    30   144   138   am
    31   138   137    1
    32   187   186    1
    33   136   137    1
    34   185   186    1
    35   185   184    1
    36   137   140    1
    37   184   181    1
    38   181   180    1
    39   148   149    1
    40   175   176    1
    41   180   177   am
    42   142   141    2
    43   177   178    2
    44   177   176    1
    45   176   179    1
    46   140   141    1
    47   141   143   am
    48   149   150    1
    49   150   151    1
    50    49    47   ar
    51    49    50   ar
    52    47    45   ar
    53    50    48   ar
    54    45    44    1
    55    45    46   ar
    56    44    41    1
    57    48    46   ar
    58   151   152    1
    59    12    11    2
    60    40    41    1
    61    41    42    1
    62    65    64   ar
    63    66    64   ar
    64    64    63    1
    65    38    37    2
    66    63    62    1
    67    11    10    1
    68    11    16   am
    69    13    10    1
    70    13    14    1
    71    13    15    1
    72    37    36    1
    73    19    18    2
    74    10     9    1
    75    39    36    1
    76    17    18    1
    77    17    16    1
    78    42    43    2
    79    42    51   am
    80    18    20   am
    81     8     7    2
    82    36    35    1
    83    51    52    1
    84    62    59    1
    85    54    53    2
    86     9     7   am
    87    20    21    1
    88    59    58    1
    89    59    60    1
    90     7     6    1
    91    53    58   am
    92    53    52    1
    93    21    22    1
    94    21    24    1
    95    23    22    2
    96    35    31   am
    97    61    60    2
    98    52    55    1
    99    22    29   am
   100    25    24    1
   101    25    26    1
   102    60    67   am
   103    32    31    2
   104    31    30    1
   105     6     5    1
   106    29    30    1
   107    55    57    1
   108    55    56    1
   109     4     3    2
   110    26    27    1
   111    30    33    1
   112    67    68    1
   113     5     3   am
   114     3     2    1
   115    28    27    1
   116    68    69    1
   117    68    71    1
   118    33    34    1
   119    70    69    2
   120     1     2    1
   121    69    76   am
   122    80    81    1
   123    80    77    1
   124   117   115   ar
   125    76    77    1
   126    83    81   ar
   127    83    85   ar
   128    81    82   ar
   129    77    78    1
   130    71    72    1
   131    72    73    1
   132   115   116   ar
   133   115   114    1
   134    85    86   ar
   135    82    84   ar
   136    86    84   ar
   137    86    87    1
   138   114   111    1
   139   111   110    1
   140   111   112    1
   141   123   122    1
   142   118   112   am
   143   118   119    1
   144   126   127    1
   145   126   125    1
   146    78    88   am
   147    78    79    2
   148    73    74    1
   149   121   120    2
   150   128   127    2
   151   112   113    2
   152    74    75    1
   153    88    89    1
   154   122   124    1
   155   122   119    1
   156   127   129   am
   157   119   120    1
   158   108   107    1
   159    91    90    2
   160    89    90    1
   161    89    92    1
   162    90    96   am
   163   135   133    1
   164   129   130    1
   165   107   109    1
   166   107   104    1
   167    92    93    1
   168    96    97    1
   169    96   102    1
   170    97    98    1
   171    97   100    1
   172   103   104    1
   173   103    98   am
   174   130   133    1
   175   130   131    1
   176   101   102    1
   177   101   100    1
   178   104   105    1
   179   133   134    1
   180    98    99    2
   181    93    95   ar
   182    93    94   ar
   183   131   132    2
   184   106   105    2
