@<TRIPOS>MOLECULE
tmp/1c21A00.pdb
 139 135 0 0 0
SMALL
GASTEIGER

@<TRIPOS>ATOM
      1  N         25.4780  -20.4150    9.2580 N.3    58  CYS58      -0.1235
      2  CA        26.2380  -19.2170    9.6280 C.3    58  CYS58       0.1677
      3  C         27.7460  -19.3890    9.8260 C.2    58  CYS58       0.2270
      4  O         28.5420  -18.5150    9.4770 O.2    58  CYS58      -0.2867
      5  CB        25.6220  -18.4900   10.8570 C.3    58  CYS58       0.0956
      6  SG        23.8890  -18.0200   10.6310 S.3    58  CYS58      -0.0801
      7  N         30.3680  -18.4400    7.1950 N.3    61  TYR61      -0.1241
      8  CA        29.8180  -17.5940    6.1350 C.3    61  TYR61       0.1605
      9  C         30.5190  -16.2520    6.1350 C.2    61  TYR61       0.2264
     10  O         30.4110  -15.4620    7.0840 O.2    61  TYR61      -0.2867
     11  CB        28.3210  -17.4410    6.3770 C.3    61  TYR61       0.0534
     12  CG        27.6130  -16.6720    5.3040 C.ar   61  TYR61      -0.0201
     13  CD1       27.3880  -17.2670    4.0640 C.ar   61  TYR61      -0.0009
     14  CD2       27.1130  -15.3910    5.5330 C.ar   61  TYR61      -0.0009
     15  CE1       26.7080  -16.6050    3.0420 C.ar   61  TYR61       0.0417
     16  CE2       26.4340  -14.7100    4.5180 C.ar   61  TYR61       0.0417
     17  CZ        26.2370  -15.3160    3.2770 C.ar   61  TYR61       0.1957
     18  OH        25.5750  -14.6450    2.2860 O.3    61  TYR61      -0.2866
     19  N         32.1030  -15.6980    9.4050 N.3    64  TYR64      -0.1241
     20  CA        31.3610  -15.6080   10.6710 C.3    64  TYR64       0.1605
     21  C         31.8220  -16.7320   11.5550 C.2    64  TYR64       0.2264
     22  O         31.8560  -17.8970   11.1460 O.2    64  TYR64      -0.2867
     23  CB        29.8440  -15.6290   10.4540 C.3    64  TYR64       0.0534
     24  CG        29.0700  -15.2950   11.7180 C.ar   64  TYR64      -0.0201
     25  CD1       28.9000  -13.9700   12.1280 C.ar   64  TYR64      -0.0009
     26  CD2       28.4930  -16.3060   12.4920 C.ar   64  TYR64      -0.0009
     27  CE1       28.1960  -13.6490   13.2930 C.ar   64  TYR64       0.0417
     28  CE2       27.7890  -16.0050   13.6600 C.ar   64  TYR64       0.0417
     29  CZ        27.6400  -14.6750   14.0570 C.ar   64  TYR64       0.1957
     30  OH        26.9390  -14.3740   15.1940 O.3    64  TYR64      -0.2866
     31  N         23.2640  -16.1070   15.4950 N.3    69  CYS69      -0.1235
     32  CA        23.4300  -14.6850   15.7830 C.3    69  CYS69       0.1677
     33  C         22.5160  -14.3420   16.9590 C.2    69  CYS69       0.2270
     34  O         21.3060  -14.6330   16.9760 O.2    69  CYS69      -0.2867
     35  CB        23.0160  -13.7980   14.6020 C.3    69  CYS69       0.0956
     36  SG        24.0480  -14.0860   13.1360 S.3    69  CYS69      -0.0801
     37  N         23.2350   -9.4650   13.7940 N.3    78  HIS78      -0.1241
     38  CA        24.5530  -10.0530   13.7280 C.3    78  HIS78       0.1621
     39  C         25.3200  -10.0830   15.0080 C.2    78  HIS78       0.2264
     40  O         26.5310  -10.2850   14.9750 O.2    78  HIS78      -0.2867
     41  CB        25.4340   -9.4320   12.6380 C.3    78  HIS78       0.0745
     42  CG        24.7030   -9.5040   11.3630 C.ar   78  HIS78       0.0817
     43  ND1       25.1210   -8.8160   10.2430 N.ar   78  HIS78      -0.2268
     44  CD2       23.5550  -10.1920   11.0730 C.ar   78  HIS78       0.1154
     45  CE1       24.2290   -9.0940    9.2930 C.ar   78  HIS78       0.1986
     46  NE2       23.2730   -9.9120    9.7560 N.ar   78  HIS78      -0.2212
     47  N         18.7900  -15.6390   15.9110 N.3    96  ASP96      -0.1225
     48  CA        18.5590  -15.8810   14.5030 C.3    96  ASP96       0.1805
     49  C         19.3160  -17.1120   14.1140 C.2    96  ASP96       0.2598
     50  O         20.5370  -17.2180   14.2860 O.2    96  ASP96      -0.2718
     51  CB        18.9140  -14.6230   13.6730 C.3    96  ASP96       0.1424
     52  CG        18.4950  -14.8050   12.2110 C.2    96  ASP96       0.3668
     53  OD1       18.0440  -15.8470   11.7870 O.co2  96  ASP96      -0.2456
     54  OD2       18.6410  -13.7640   11.4650 O.co2  96  ASP96      -0.2456
     55  N         18.5690  -18.0920   13.6210 N.am   97  VAL97      -0.1966
     56  CA        19.1370  -19.3780   13.2140 C.3    97  VAL97       0.1727
     57  C         18.9310  -19.7160   11.7260 C.2    97  VAL97       0.2616
     58  O         17.8660  -19.4900   11.1740 O.2    97  VAL97      -0.2715
     59  CB        18.3900  -20.4790   13.9580 C.3    97  VAL97       0.0290
     60  CG1       19.0770  -21.8100   13.6640 C.3    97  VAL97       0.0023
     61  CG2       18.4340  -20.1870   15.4480 C.3    97  VAL97       0.0023
     62  N         19.9380  -20.2930   11.0920 N.am   98  THR98      -0.1951
     63  CA        19.8000  -20.7180    9.6810 C.3    98  THR98       0.1897
     64  C         20.4630  -22.0770    9.6000 C.2    98  THR98       0.2313
     65  O         21.6780  -22.2000    9.8120 O.2    98  THR98      -0.2863
     66  CB        20.4490  -19.7310    8.6960 C.3    98  THR98       0.1794
     67  OG1       19.8720  -18.4410    8.8640 O.3    98  THR98      -0.2208
     68  CG2       20.2760  -20.2350    7.2630 C.3    98  THR98       0.0378
     69  N         15.5550  -20.4050    7.5310 N.3   107  ASP107     -0.1239
     70  CA        16.0530  -19.2320    8.2300 C.3   107  ASP107      0.1674
     71  C         14.9630  -18.6020    9.0910 C.2   107  ASP107      0.2266
     72  O         13.8960  -18.3340    8.5730 O.2   107  ASP107     -0.2867
     73  CB        16.5600  -18.2710    7.1150 C.3   107  ASP107      0.1410
     74  CG        17.2140  -16.9800    7.5290 C.2   107  ASP107      0.3668
     75  OD1       17.5200  -16.0910    6.7300 O.co2 107  ASP107     -0.2456
     76  OD2       17.4460  -16.9300    8.8070 O.co2 107  ASP107     -0.2456
     77  N         15.0880  -11.9490    2.0560 N.3   170  HIS170     -0.1241
     78  CA        15.7570  -12.4040    0.8420 C.3   170  HIS170      0.1621
     79  C         15.2530  -13.7440    0.3500 C.2   170  HIS170      0.2264
     80  O         14.7160  -14.5430    1.0930 O.2   170  HIS170     -0.2867
     81  CB        17.2520  -12.6150    1.1920 C.3   170  HIS170      0.0745
     82  CG        17.4020  -13.3720    2.4960 C.ar  170  HIS170      0.0817
     83  ND1       17.6240  -14.7400    2.5350 N.ar  170  HIS170     -0.2268
     84  CD2       17.3330  -12.9330    3.8100 C.ar  170  HIS170      0.1154
     85  CE1       17.6790  -15.1000    3.8320 C.ar  170  HIS170      0.1986
     86  NE2       17.5230  -14.0380    4.6160 N.ar  170  HIS170     -0.2212
     87  N         21.8220  -19.3360    0.5110 N.3   176  PHE176     -0.1227
     88  CA        21.4100  -18.6920    1.7440 C.3   176  PHE176      0.1736
     89  C         20.6400  -17.4070    1.4550 C.2   176  PHE176      0.2595
     90  O         19.5340  -17.1690    1.9380 O.2   176  PHE176     -0.2718
     91  CB        22.6890  -18.3800    2.5380 C.3   176  PHE176      0.0547
     92  CG        22.5360  -17.9040    3.9750 C.ar  176  PHE176     -0.0202
     93  CD1       21.2920  -17.6080    4.5230 C.ar  176  PHE176     -0.0042
     94  CD2       23.6630  -17.7570    4.7910 C.ar  176  PHE176     -0.0042
     95  CE1       21.1680  -17.1590    5.8420 C.ar  176  PHE176     -0.0003
     96  CE2       23.5620  -17.3300    6.1180 C.ar  176  PHE176     -0.0003
     97  CZ        22.3040  -17.0310    6.6440 C.ar  176  PHE176     -0.0000
     98  N         21.2450  -16.5450    0.6530 N.am  177  HIS177     -0.1975
     99  CA        20.6340  -15.2910    0.3000 C.3   177  HIS177      0.1656
    100  C         20.4480  -15.2150   -1.2030 C.2   177  HIS177      0.2291
    101  O         21.3810  -14.8800   -1.9050 O.2   177  HIS177     -0.2864
    102  CB        21.5380  -14.1350    0.7190 C.3   177  HIS177      0.0771
    103  CG        21.6650  -14.0780    2.2030 C.ar  177  HIS177      0.0820
    104  ND1       22.7640  -14.6280    2.8620 N.ar  177  HIS177     -0.2267
    105  CD2       20.8200  -13.5530    3.1310 C.ar  177  HIS177      0.1154
    106  CE1       22.5640  -14.4240    4.1670 C.ar  177  HIS177      0.1986
    107  NE2       21.4010  -13.7850    4.3590 N.ar  177  HIS177     -0.2212
    108  N         11.6940  -10.3650    7.4160 N.3   203  GLU203     -0.1245
    109  CA        12.3870  -10.2640    8.7090 C.3   203  GLU203      0.1567
    110  C         12.6620   -8.8140    9.1410 C.2   203  GLU203      0.2260
    111  O         13.7820   -8.2860    9.2650 O.2   203  GLU203     -0.2867
    112  CB        13.7060  -11.0640    8.5360 C.3   203  GLU203      0.0388
    113  CG        14.6200  -10.6610    7.3390 C.3   203  GLU203      0.1160
    114  CD        15.9200  -11.4440    7.3180 C.2   203  GLU203      0.3649
    115  OE1       16.7980  -11.2490    8.1390 O.co2 203  GLU203     -0.2457
    116  OE2       16.0370  -12.3580    6.3770 O.co2 203  GLU203     -0.2457
    117  N         30.7650   -6.8360   12.1800 N.3   220  TRP220     -0.1241
    118  CA        29.5300   -7.6020   12.1030 C.3   220  TRP220      0.1605
    119  C         28.3670   -6.9260   12.8130 C.2   220  TRP220      0.2264
    120  O         27.2930   -6.6750   12.2620 O.2   220  TRP220     -0.2867
    121  CB        29.7000   -9.0230   12.6800 C.3   220  TRP220      0.0550
    122  CG        30.5120   -9.9080   11.7970 C.ar  220  TRP220      0.0003
    123  CD1       31.8420  -10.1900   11.9270 C.ar  220  TRP220      0.0946
    124  CD2       30.0590  -10.6060   10.6510 C.ar  220  TRP220      0.0152
    125  NE1       32.2600  -11.0400   10.9420 N.ar  220  TRP220     -0.2442
    126  CE2       31.1880  -11.3060   10.1300 C.ar  220  TRP220      0.0810
    127  CE3       28.8150  -10.7130   10.0360 C.ar  220  TRP220      0.0012
    128  CZ2       31.0900  -12.1240    9.0110 C.ar  220  TRP220      0.0191
    129  CZ3       28.7300  -11.5180    8.9250 C.ar  220  TRP220      0.0001
    130  CH2       29.8480  -12.2180    8.4270 C.ar  220  TRP220      0.0015
    131  N         11.5970  -13.2690   12.2090 N.3   234  GLU234     -0.1245
    132  CA        11.7370  -13.7360   10.8370 C.3   234  GLU234      0.1567
    133  C         11.0950  -15.0910   10.5850 C.2   234  GLU234      0.2260
    134  O         11.1200  -16.0080   11.4100 O.2   234  GLU234     -0.2867
    135  CB        13.2450  -13.8730   10.4920 C.3   234  GLU234      0.0388
    136  CG        13.5450  -14.5670    9.1410 C.3   234  GLU234      0.1160
    137  CD        15.0030  -14.5540    8.7230 C.2   234  GLU234      0.3649
    138  OE1       15.3630  -14.5690    7.5610 O.co2 234  GLU234     -0.2457
    139  OE2       15.8490  -14.5770    9.7260 O.co2 234  GLU234     -0.2457
@<TRIPOS>BOND
     1   101   100    2
     2   100    99    1
     3    99    98    1
     4    99   102    1
     5    79    78    1
     6    79    80    2
     7    87    88    1
     8    98    89   am
     9   102   103    1
    10    78    81    1
    11    78    77    1
    12    81    82    1
    13    89    88    1
    14    89    90    2
    15    88    91    1
    16   103   104   ar
    17   103   105   ar
    18    18    17    1
    19    82    83   ar
    20    82    84   ar
    21    83    85   ar
    22    91    92    1
    23   104   106   ar
    24    15    17   ar
    25    15    13   ar
    26   105   107   ar
    27    17    16   ar
    28    84    86   ar
    29    85    86   ar
    30    92    93   ar
    31    92    94   ar
    32    13    12   ar
    33   106   107   ar
    34    16    14   ar
    35    93    95   ar
    36    94    96   ar
    37    12    14   ar
    38    12    11    1
    39    95    97   ar
    40    96    97   ar
    41     8     9    1
    42     8    11    1
    43     8     7    1
    44     9    10    2
    45   116   114   ar
    46    75    74   ar
    47    73    74    1
    48    73    70    1
    49    68    66    1
    50   114   113    1
    51   114   115   ar
    52   113   112    1
    53   108   109    1
    54    74    76   ar
    55    69    70    1
    56   138   137   ar
    57    70    71    1
    58   130   129   ar
    59   130   128   ar
    60   112   109    1
    61    72    71    2
    62    66    67    1
    63    66    63    1
    64   109   110    1
    65   137   136    1
    66   137   139   ar
    67   129   127   ar
    68   128   126   ar
    69   136   135    1
    70   110   111    2
    71     1     2    1
    72    45    46   ar
    73    45    43   ar
    74    19    20    1
    75     4     3    2
    76    64    63    1
    77    64    65    2
    78     2     3    1
    79     2     5    1
    80    63    62    1
    81    46    44   ar
    82   127   124   ar
    83   126   124   ar
    84   126   125   ar
    85    43    42   ar
    86    23    20    1
    87    23    24    1
    88   135   132    1
    89   133   132    1
    90   133   134    2
    91     6     5    1
    92   124   122   ar
    93    20    21    1
    94   132   131    1
    95   125   123   ar
    96    44    42   ar
    97    62    57   am
    98    22    21    2
    99    58    57    2
   100    42    41    1
   101    54    52   ar
   102    24    25   ar
   103    24    26   ar
   104    57    56    1
   105    53    52   ar
   106   122   123   ar
   107   122   121    1
   108   118   117    1
   109   118   121    1
   110   118   119    1
   111    25    27   ar
   112    52    51    1
   113   120   119    2
   114    26    28   ar
   115    41    38    1
   116    36    35    1
   117    56    55    1
   118    56    59    1
   119    27    29   ar
   120    55    49   am
   121    28    29   ar
   122    60    59    1
   123    51    48    1
   124    38    37    1
   125    38    39    1
   126    59    61    1
   127    29    30    1
   128    49    50    2
   129    49    48    1
   130    48    47    1
   131    35    32    1
   132    40    39    2
   133    31    32    1
   134    32    33    1
   135    33    34    2
