@<TRIPOS>MOLECULE
tmp/1c22A00.pdb
 139 135 0 0 0
SMALL
GASTEIGER

@<TRIPOS>ATOM
      1  N         25.4460  -20.4590    9.2370 N.3    58  CYS58      -0.1235
      2  CA        26.1990  -19.2460    9.5500 C.3    58  CYS58       0.1677
      3  C         27.7040  -19.4170    9.7270 C.2    58  CYS58       0.2270
      4  O         28.4700  -18.5210    9.4140 O.2    58  CYS58      -0.2867
      5  CB        25.6380  -18.5220   10.8080 C.3    58  CYS58       0.0956
      6  SG        23.8860  -18.0910   10.6520 S.3    58  CYS58      -0.0801
      7  N         30.3750  -18.4790    7.0820 N.3    61  TYR61      -0.1241
      8  CA        29.7670  -17.6900    6.0020 C.3    61  TYR61       0.1605
      9  C         30.3920  -16.3180    5.9580 C.2    61  TYR61       0.2264
     10  O         30.2240  -15.5160    6.8770 O.2    61  TYR61      -0.2867
     11  CB        28.2660  -17.5500    6.2880 C.3    61  TYR61       0.0534
     12  CG        27.4870  -16.9300    5.1540 C.ar   61  TYR61      -0.0201
     13  CD1       27.3050  -17.6630    3.9840 C.ar   61  TYR61      -0.0009
     14  CD2       26.8960  -15.6710    5.2560 C.ar   61  TYR61      -0.0009
     15  CE1       26.5610  -17.1580    2.9200 C.ar   61  TYR61       0.0417
     16  CE2       26.1500  -15.1480    4.1960 C.ar   61  TYR61       0.0417
     17  CZ        25.9810  -15.9000    3.0320 C.ar   61  TYR61       0.1957
     18  OH        25.2540  -15.4150    1.9640 O.3    61  TYR61      -0.2866
     19  N         31.9510  -15.6550    9.2230 N.3    64  TYR64      -0.1241
     20  CA        31.2320  -15.5570   10.5160 C.3    64  TYR64       0.1605
     21  C         31.7180  -16.6510   11.4410 C.2    64  TYR64       0.2264
     22  O         31.7880  -17.8400   11.0870 O.2    64  TYR64      -0.2867
     23  CB        29.7130  -15.6170   10.3150 C.3    64  TYR64       0.0534
     24  CG        28.9680  -15.2740   11.5830 C.ar   64  TYR64      -0.0201
     25  CD1       28.7870  -13.9380   11.9520 C.ar   64  TYR64      -0.0009
     26  CD2       28.4620  -16.3000   12.3830 C.ar   64  TYR64      -0.0009
     27  CE1       28.1270  -13.6200   13.1410 C.ar   64  TYR64       0.0417
     28  CE2       27.8000  -15.9940   13.5720 C.ar   64  TYR64       0.0417
     29  CZ        27.6250  -14.6580   13.9330 C.ar   64  TYR64       0.1957
     30  OH        26.9440  -14.3630   15.0910 O.3    64  TYR64      -0.2866
     31  N         23.2480  -16.0870   15.3950 N.3    69  CYS69      -0.1235
     32  CA        23.4200  -14.6780   15.6930 C.3    69  CYS69       0.1677
     33  C         22.5460  -14.3450   16.8810 C.2    69  CYS69       0.2270
     34  O         21.3500  -14.6560   16.8970 O.2    69  CYS69      -0.2867
     35  CB        22.9970  -13.7340   14.5630 C.3    69  CYS69       0.0956
     36  SG        24.0010  -13.9950   13.0790 S.3    69  CYS69      -0.0801
     37  N         23.2410   -9.4320   13.7010 N.3    78  HIS78      -0.1241
     38  CA        24.5550  -10.0500   13.6200 C.3    78  HIS78       0.1621
     39  C         25.3250  -10.0770   14.9090 C.2    78  HIS78       0.2264
     40  O         26.5350  -10.2710   14.8620 O.2    78  HIS78      -0.2867
     41  CB        25.4290   -9.4570   12.4940 C.3    78  HIS78       0.0745
     42  CG        24.6440   -9.5220   11.2350 C.ar   78  HIS78       0.0817
     43  ND1       24.9930   -8.7890   10.1080 N.ar   78  HIS78      -0.2268
     44  CD2       23.4900  -10.2190   10.9850 C.ar   78  HIS78       0.1154
     45  CE1       24.0610   -9.0750    9.2000 C.ar   78  HIS78       0.1986
     46  NE2       23.1430   -9.9230    9.6880 N.ar   78  HIS78      -0.2212
     47  N         18.7700  -15.6080   15.8920 N.3    96  ASP96      -0.1225
     48  CA        18.5290  -15.8660   14.4620 C.3    96  ASP96       0.1805
     49  C         19.2660  -17.1080   14.0900 C.2    96  ASP96       0.2598
     50  O         20.4810  -17.2230   14.2700 O.2    96  ASP96      -0.2718
     51  CB        18.9160  -14.6450   13.6040 C.3    96  ASP96       0.1424
     52  CG        18.4610  -14.8330   12.1480 C.2    96  ASP96       0.3668
     53  OD1       18.0090  -15.8960   11.7220 O.co2  96  ASP96      -0.2456
     54  OD2       18.6120  -13.7530   11.4550 O.co2  96  ASP96      -0.2456
     55  N         18.5150  -18.0760   13.6190 N.am   97  VAL97      -0.1966
     56  CA        19.0740  -19.3800   13.2550 C.3    97  VAL97       0.1727
     57  C         18.8770  -19.7150   11.7570 C.2    97  VAL97       0.2616
     58  O         17.8140  -19.4790   11.1770 O.2    97  VAL97      -0.2715
     59  CB        18.2950  -20.4480   14.0420 C.3    97  VAL97       0.0290
     60  CG1       18.7460  -21.8560   13.6510 C.3    97  VAL97       0.0023
     61  CG2       18.4830  -20.2640   15.5570 C.3    97  VAL97       0.0023
     62  N         19.8880  -20.2990   11.1400 N.am   98  THR98      -0.1951
     63  CA        19.7550  -20.7290    9.7300 C.3    98  THR98       0.1897
     64  C         20.3810  -22.1100    9.6630 C.2    98  THR98       0.2313
     65  O         21.5790  -22.2810    9.9460 O.2    98  THR98      -0.2863
     66  CB        20.4080  -19.7490    8.7370 C.3    98  THR98       0.1794
     67  OG1       19.9120  -18.4230    8.9320 O.3    98  THR98      -0.2208
     68  CG2       20.1030  -20.2600    7.3300 C.3    98  THR98       0.0378
     69  N         15.5540  -20.4430    7.5560 N.3   107  ASP107     -0.1239
     70  CA        16.0330  -19.2330    8.2160 C.3   107  ASP107      0.1674
     71  C         14.9410  -18.6000    9.0850 C.2   107  ASP107      0.2266
     72  O         13.8780  -18.2990    8.5640 O.2   107  ASP107     -0.2867
     73  CB        16.4680  -18.2470    7.0960 C.3   107  ASP107      0.1410
     74  CG        17.1480  -16.9500    7.4750 C.2   107  ASP107      0.3668
     75  OD1       17.4390  -16.0550    6.6540 O.co2 107  ASP107     -0.2456
     76  OD2       17.4100  -16.8750    8.7670 O.co2 107  ASP107     -0.2456
     77  N         15.0450  -11.9790    2.0180 N.3   170  HIS170     -0.1241
     78  CA        15.7000  -12.4250    0.8080 C.3   170  HIS170      0.1621
     79  C         15.1960  -13.7670    0.3330 C.2   170  HIS170      0.2264
     80  O         14.6410  -14.5740    1.0760 O.2   170  HIS170     -0.2867
     81  CB        17.2190  -12.6320    1.1590 C.3   170  HIS170      0.0745
     82  CG        17.3790  -13.4260    2.4350 C.ar  170  HIS170      0.0817
     83  ND1       17.5570  -14.7970    2.4410 N.ar  170  HIS170     -0.2268
     84  CD2       17.2900  -13.0130    3.7630 C.ar  170  HIS170      0.1154
     85  CE1       17.6180  -15.1960    3.7320 C.ar  170  HIS170      0.1986
     86  NE2       17.4500  -14.1480    4.5310 N.ar  170  HIS170     -0.2212
     87  N         21.7840  -19.3810    0.5050 N.3   176  PHE176     -0.1227
     88  CA        21.3560  -18.7100    1.7340 C.3   176  PHE176      0.1736
     89  C         20.6080  -17.4170    1.4300 C.2   176  PHE176      0.2595
     90  O         19.5060  -17.1630    1.9170 O.2   176  PHE176     -0.2718
     91  CB        22.6110  -18.4070    2.5830 C.3   176  PHE176      0.0547
     92  CG        22.4360  -17.9750    4.0440 C.ar  176  PHE176     -0.0202
     93  CD1       21.2070  -17.5980    4.5890 C.ar  176  PHE176     -0.0042
     94  CD2       23.5500  -17.9350    4.8920 C.ar  176  PHE176     -0.0042
     95  CE1       21.0860  -17.1860    5.9210 C.ar  176  PHE176     -0.0003
     96  CE2       23.4490  -17.5540    6.2340 C.ar  176  PHE176     -0.0003
     97  CZ        22.2090  -17.1820    6.7520 C.ar  176  PHE176     -0.0000
     98  N         21.2210  -16.5640    0.6260 N.am  177  HIS177     -0.1975
     99  CA        20.6360  -15.3010    0.2810 C.3   177  HIS177      0.1656
    100  C         20.4310  -15.2310   -1.2160 C.2   177  HIS177      0.2291
    101  O         21.3620  -14.9310   -1.9290 O.2   177  HIS177     -0.2864
    102  CB        21.5570  -14.1570    0.7140 C.3   177  HIS177      0.0771
    103  CG        21.6340  -14.0960    2.2010 C.ar  177  HIS177      0.0820
    104  ND1       22.7080  -14.6650    2.8990 N.ar  177  HIS177     -0.2267
    105  CD2       20.7660  -13.5660    3.1050 C.ar  177  HIS177      0.1154
    106  CE1       22.4820  -14.4470    4.2030 C.ar  177  HIS177      0.1986
    107  NE2       21.3200  -13.7950    4.3560 N.ar  177  HIS177     -0.2212
    108  N         11.6660  -10.3710    7.4130 N.3   203  GLU203     -0.1245
    109  CA        12.3710  -10.2720    8.7030 C.3   203  GLU203      0.1567
    110  C         12.6360   -8.8180    9.1070 C.2   203  GLU203      0.2260
    111  O         13.7660   -8.3110    9.2220 O.2   203  GLU203     -0.2867
    112  CB        13.7020  -11.0540    8.5060 C.3   203  GLU203      0.0388
    113  CG        14.5340  -10.6630    7.2340 C.3   203  GLU203      0.1160
    114  CD        15.8760  -11.3810    7.2120 C.2   203  GLU203      0.3649
    115  OE1       16.7570  -11.1040    7.9990 O.co2 203  GLU203     -0.2457
    116  OE2       16.0010  -12.3860    6.3810 O.co2 203  GLU203     -0.2457
    117  N         30.8490   -6.8150   12.3690 N.3   220  TRP220     -0.1241
    118  CA        29.6680   -7.6420   12.2250 C.3   220  TRP220      0.1605
    119  C         28.4720   -7.0060   12.9080 C.2   220  TRP220      0.2264
    120  O         27.3990   -6.8080   12.3230 O.2   220  TRP220     -0.2867
    121  CB        29.8880   -9.0530   12.8290 C.3   220  TRP220      0.0550
    122  CG        30.7180   -9.9470   11.9460 C.ar  220  TRP220      0.0003
    123  CD1       32.0200  -10.2840   12.1510 C.ar  220  TRP220      0.0946
    124  CD2       30.3290  -10.5870   10.7330 C.ar  220  TRP220      0.0152
    125  NE1       32.4630  -11.1180   11.1690 N.ar  220  TRP220     -0.2442
    126  CE2       31.4620  -11.3030   10.2720 C.ar  220  TRP220      0.0810
    127  CE3       29.1490  -10.6230   10.0030 C.ar  220  TRP220      0.0012
    128  CZ2       31.4390  -12.0630    9.1180 C.ar  220  TRP220      0.0191
    129  CZ3       29.1310  -11.3720    8.8620 C.ar  220  TRP220      0.0001
    130  CH2       30.2590  -12.0900    8.4360 C.ar  220  TRP220      0.0015
    131  N         11.5840  -13.2440   12.1850 N.3   234  GLU234     -0.1245
    132  CA        11.7550  -13.7250   10.8390 C.3   234  GLU234      0.1567
    133  C         11.1190  -15.0670   10.5790 C.2   234  GLU234      0.2260
    134  O         11.1710  -15.9900   11.3990 O.2   234  GLU234     -0.2867
    135  CB        13.2930  -13.8490   10.5370 C.3   234  GLU234      0.0388
    136  CG        13.6070  -14.6260    9.2270 C.3   234  GLU234      0.1160
    137  CD        15.0570  -14.6230    8.7860 C.2   234  GLU234      0.3649
    138  OE1       15.3830  -14.6510    7.6190 O.co2 234  GLU234     -0.2457
    139  OE2       15.9210  -14.6150    9.7680 O.co2 234  GLU234     -0.2457
@<TRIPOS>BOND
     1   101   100    2
     2   100    99    1
     3    99    98    1
     4    99   102    1
     5    79    78    1
     6    79    80    2
     7    87    88    1
     8    98    89   am
     9   102   103    1
    10    78    81    1
    11    78    77    1
    12    81    82    1
    13    89    88    1
    14    89    90    2
    15    88    91    1
    16    18    17    1
    17   103   104   ar
    18   103   105   ar
    19    82    83   ar
    20    82    84   ar
    21    83    85   ar
    22    91    92    1
    23   104   106   ar
    24    15    17   ar
    25    15    13   ar
    26    17    16   ar
    27   105   107   ar
    28    85    86   ar
    29    84    86   ar
    30    13    12   ar
    31    92    93   ar
    32    92    94   ar
    33    16    14   ar
    34   106   107   ar
    35    93    95   ar
    36    94    96   ar
    37    12    14   ar
    38    12    11    1
    39    95    97   ar
    40     9     8    1
    41     9    10    2
    42     8    11    1
    43     8     7    1
    44    96    97   ar
    45   116   114   ar
    46    75    74   ar
    47    73    74    1
    48    73    70    1
    49   114   113    1
    50   114   115   ar
    51   113   112    1
    52    68    66    1
    53   108   109    1
    54    74    76   ar
    55    69    70    1
    56   138   137   ar
    57    70    71    1
    58   130   129   ar
    59   130   128   ar
    60   112   109    1
    61    72    71    2
    62   109   110    1
    63    66    67    1
    64    66    63    1
    65   137   136    1
    66   137   139   ar
    67   129   127   ar
    68   110   111    2
    69   128   126   ar
    70    45    46   ar
    71    45    43   ar
    72    19    20    1
    73   136   135    1
    74     1     2    1
    75     4     3    2
    76     2     3    1
    77     2     5    1
    78    64    63    1
    79    64    65    2
    80    46    44   ar
    81    63    62    1
    82   127   124   ar
    83    43    42   ar
    84   126   124   ar
    85   126   125   ar
    86    23    20    1
    87    23    24    1
    88    20    21    1
    89   135   132    1
    90   133   132    1
    91   133   134    2
    92     6     5    1
    93   124   122   ar
    94   132   131    1
    95    44    42   ar
    96    22    21    2
    97    62    57   am
    98   125   123   ar
    99    58    57    2
   100    42    41    1
   101    54    52   ar
   102    24    25   ar
   103    24    26   ar
   104    53    52   ar
   105    57    56    1
   106   122   123   ar
   107   122   121    1
   108    25    27   ar
   109    52    51    1
   110   118   117    1
   111   118   121    1
   112   118   119    1
   113   120   119    2
   114    26    28   ar
   115    41    38    1
   116    36    35    1
   117    27    29   ar
   118    56    55    1
   119    56    59    1
   120    28    29   ar
   121    51    48    1
   122    55    49   am
   123    38    37    1
   124    38    39    1
   125    60    59    1
   126    29    30    1
   127    59    61    1
   128    49    50    2
   129    49    48    1
   130    48    47    1
   131    35    32    1
   132    40    39    2
   133    31    32    1
   134    32    33    1
   135    33    34    2
