@<TRIPOS>MOLECULE
tmp/1c23A00.pdb
 157 153 0 0 0
SMALL
GASTEIGER

@<TRIPOS>ATOM
      1  N         25.5680  -20.4850    9.2190 N.3    58  CYS58      -0.1235
      2  CA        26.3320  -19.2990    9.5980 C.3    58  CYS58       0.1677
      3  C         27.8370  -19.4670    9.7570 C.2    58  CYS58       0.2270
      4  O         28.6130  -18.5860    9.4140 O.2    58  CYS58      -0.2867
      5  CB        25.7240  -18.6010   10.8700 C.3    58  CYS58       0.0956
      6  SG        23.9770  -18.1310   10.6880 S.3    58  CYS58      -0.0801
      7  N         30.4180  -18.5400    7.0820 N.3    61  TYR61      -0.1241
      8  CA        29.8180  -17.7580    5.9900 C.3    61  TYR61       0.1605
      9  C         30.4920  -16.4020    5.9350 C.2    61  TYR61       0.2264
     10  O         30.4140  -15.6150    6.8690 O.2    61  TYR61      -0.2867
     11  CB        28.3220  -17.6570    6.2770 C.3    61  TYR61       0.0534
     12  CG        27.5580  -16.9850    5.1720 C.ar   61  TYR61      -0.0201
     13  CD1       27.2890  -17.6820    3.9950 C.ar   61  TYR61      -0.0009
     14  CD2       27.0710  -15.6840    5.2990 C.ar   61  TYR61      -0.0009
     15  CE1       26.5510  -17.1110    2.9590 C.ar   61  TYR61       0.0417
     16  CE2       26.3270  -15.0990    4.2680 C.ar   61  TYR61       0.0417
     17  CZ        26.0690  -15.8100    3.0930 C.ar   61  TYR61       0.1957
     18  OH        25.3220  -15.2550    2.0610 O.3    61  TYR61      -0.2866
     19  N         32.0630  -15.6010    9.1380 N.3    64  TYR64      -0.1241
     20  CA        31.3170  -15.5280   10.4080 C.3    64  TYR64       0.1605
     21  C         31.7950  -16.6720   11.3020 C.2    64  TYR64       0.2264
     22  O         31.8060  -17.8660   10.9270 O.2    64  TYR64      -0.2867
     23  CB        29.7840  -15.5230   10.1810 C.3    64  TYR64       0.0534
     24  CG        29.0030  -15.2700   11.4550 C.ar   64  TYR64      -0.0201
     25  CD1       28.7660  -13.9640   11.8800 C.ar   64  TYR64      -0.0009
     26  CD2       28.4990  -16.3300   12.2170 C.ar   64  TYR64      -0.0009
     27  CE1       28.0630  -13.7000   13.0590 C.ar   64  TYR64       0.0417
     28  CE2       27.7870  -16.0960   13.3950 C.ar   64  TYR64       0.0417
     29  CZ        27.5800  -14.7750   13.8070 C.ar   64  TYR64       0.1957
     30  OH        26.8680  -14.5210   14.9380 O.3    64  TYR64      -0.2866
     31  N         23.2300  -16.0980   15.3770 N.3    69  CYS69      -0.1235
     32  CA        23.4080  -14.6800   15.6520 C.3    69  CYS69       0.1677
     33  C         22.5220  -14.3440   16.8230 C.2    69  CYS69       0.2270
     34  O         21.3320  -14.6870   16.8360 O.2    69  CYS69      -0.2867
     35  CB        22.9770  -13.7690   14.5070 C.3    69  CYS69       0.0956
     36  SG        23.9580  -14.0290   13.0160 S.3    69  CYS69      -0.0801
     37  N         22.7280   -9.4840   13.5500 N.3    78  HIS78      -0.1241
     38  CA        24.0560  -10.0420   13.3940 C.3    78  HIS78       0.1621
     39  C         24.9620  -10.0030   14.5930 C.2    78  HIS78       0.2264
     40  O         26.1770  -10.0930   14.3800 O.2    78  HIS78      -0.2867
     41  CB        24.7670   -9.4880   12.1420 C.3    78  HIS78       0.0745
     42  CG        23.8690   -9.7510   10.9850 C.ar   78  HIS78       0.0817
     43  ND1       24.0550   -9.1720    9.7400 N.ar   78  HIS78      -0.2268
     44  CD2       22.7580  -10.5530   10.9270 C.ar   78  HIS78       0.1154
     45  CE1       23.0700   -9.6420    8.9570 C.ar   78  HIS78       0.1986
     46  NE2       22.2680  -10.4590    9.6440 N.ar   78  HIS78      -0.2212
     47  N         18.7750  -15.6880   15.9400 N.3    96  ASP96      -0.1225
     48  CA        18.5420  -15.9230   14.5250 C.3    96  ASP96       0.1805
     49  C         19.2810  -17.1640   14.1030 C.2    96  ASP96       0.2598
     50  O         20.4890  -17.2750   14.2400 O.2    96  ASP96      -0.2718
     51  CB        18.9410  -14.6570   13.6980 C.3    96  ASP96       0.1424
     52  CG        18.5910  -14.8000   12.2360 C.2    96  ASP96       0.3668
     53  OD1       18.1210  -15.8000   11.7210 O.co2  96  ASP96      -0.2456
     54  OD2       18.7390  -13.6900   11.6090 O.co2  96  ASP96      -0.2456
     55  N         18.5370  -18.1490   13.6460 N.am   97  VAL97      -0.1966
     56  CA        19.1310  -19.4240   13.2590 C.3    97  VAL97       0.1727
     57  C         18.9280  -19.7360   11.7750 C.2    97  VAL97       0.2616
     58  O         17.8540  -19.5180   11.2000 O.2    97  VAL97      -0.2715
     59  CB        18.3840  -20.5430   14.0070 C.3    97  VAL97       0.0290
     60  CG1       18.9920  -21.9030   13.6460 C.3    97  VAL97       0.0023
     61  CG2       18.4480  -20.3370   15.5240 C.3    97  VAL97       0.0023
     62  N         19.9380  -20.3070   11.1470 N.am   98  THR98      -0.1951
     63  CA        19.7880  -20.7220    9.7400 C.3    98  THR98       0.1897
     64  C         20.4370  -22.0800    9.6510 C.2    98  THR98       0.2313
     65  O         21.6290  -22.2350    9.9200 O.2    98  THR98      -0.2863
     66  CB        20.4280  -19.7530    8.7260 C.3    98  THR98       0.1794
     67  OG1       19.7400  -18.5190    8.8640 O.3    98  THR98      -0.2208
     68  CG2       20.1970  -20.3330    7.3320 C.3    98  THR98       0.0378
     69  N         15.7210  -20.3100    7.4360 N.3   107  ASP107     -0.1239
     70  CA        16.1620  -19.1000    8.1600 C.3   107  ASP107      0.1674
     71  C         15.0360  -18.5160    9.0250 C.2   107  ASP107      0.2266
     72  O         13.9820  -18.2200    8.4970 O.2   107  ASP107     -0.2867
     73  CB        16.6390  -18.0660    7.1080 C.3   107  ASP107      0.1410
     74  CG        17.3660  -16.8390    7.5680 C.2   107  ASP107      0.3668
     75  OD1       17.7070  -15.9540    6.7760 O.co2 107  ASP107     -0.2456
     76  OD2       17.5650  -16.7990    8.8780 O.co2 107  ASP107     -0.2456
     77  N         18.8370   -3.4760    6.0780 N.3   167  TYR167     -0.1227
     78  CA        18.8800   -4.9180    5.9890 C.3   167  TYR167      0.1736
     79  C         17.4870   -5.3360    5.6290 C.2   167  TYR167      0.2595
     80  O         16.5570   -4.5730    5.9420 O.2   167  TYR167     -0.2718
     81  CB        19.4410   -5.5910    7.2600 C.3   167  TYR167      0.0548
     82  CG        20.9190   -5.2880    7.4460 C.ar  167  TYR167     -0.0200
     83  CD1       21.8980   -6.2140    7.0800 C.ar  167  TYR167     -0.0009
     84  CD2       21.3290   -4.0530    7.9490 C.ar  167  TYR167     -0.0009
     85  CE1       23.2530   -5.9200    7.2310 C.ar  167  TYR167      0.0417
     86  CE2       22.6810   -3.7360    8.0890 C.ar  167  TYR167      0.0417
     87  CZ        23.6470   -4.6790    7.7360 C.ar  167  TYR167      0.1957
     88  OH        24.9850   -4.3720    7.8920 O.3   167  TYR167     -0.2866
     89  N         17.3500   -6.4800    4.9420 N.am  168  CYS168     -0.1970
     90  CA        16.0350   -6.8840    4.4940 C.3   168  CYS168      0.1712
     91  C         15.9050   -8.3840    4.3180 C.2   168  CYS168      0.2296
     92  O         16.8800   -9.0960    4.5190 O.2   168  CYS168     -0.2864
     93  CB        15.7210   -6.1360    3.1620 C.3   168  CYS168      0.0983
     94  SG        17.0550   -6.2810    1.9550 S.3   168  CYS168     -0.0798
     95  N         15.0490  -11.9220    2.0120 N.3   170  HIS170     -0.1241
     96  CA        15.7430  -12.3220    0.8120 C.3   170  HIS170      0.1621
     97  C         15.2510  -13.6740    0.3330 C.2   170  HIS170      0.2264
     98  O         14.7250  -14.4790    1.0890 O.2   170  HIS170     -0.2867
     99  CB        17.2470  -12.5090    1.2210 C.3   170  HIS170      0.0745
    100  CG        17.3730  -13.3070    2.5000 C.ar  170  HIS170      0.0817
    101  ND1       17.5580  -14.6790    2.5040 N.ar  170  HIS170     -0.2268
    102  CD2       17.2630  -12.9130    3.8230 C.ar  170  HIS170      0.1154
    103  CE1       17.5770  -15.0810    3.7880 C.ar  170  HIS170      0.1986
    104  NE2       17.4000  -14.0480    4.5980 N.ar  170  HIS170     -0.2212
    105  N         21.8360  -19.2970    0.5100 N.3   176  PHE176     -0.1227
    106  CA        21.4170  -18.6770    1.7570 C.3   176  PHE176      0.1736
    107  C         20.6720  -17.3850    1.4720 C.2   176  PHE176      0.2595
    108  O         19.5840  -17.1320    1.9600 O.2   176  PHE176     -0.2718
    109  CB        22.6790  -18.3570    2.5550 C.3   176  PHE176      0.0547
    110  CG        22.5200  -17.9650    4.0100 C.ar  176  PHE176     -0.0202
    111  CD1       21.2820  -17.6190    4.5540 C.ar  176  PHE176     -0.0042
    112  CD2       23.6570  -17.9030    4.8280 C.ar  176  PHE176     -0.0042
    113  CE1       21.1620  -17.2510    5.9000 C.ar  176  PHE176     -0.0003
    114  CE2       23.5610  -17.5180    6.1700 C.ar  176  PHE176     -0.0003
    115  CZ        22.3070  -17.2020    6.7010 C.ar  176  PHE176     -0.0000
    116  N         21.2820  -16.5330    0.6660 N.am  177  HIS177     -0.1975
    117  CA        20.6680  -15.2790    0.3350 C.3   177  HIS177      0.1656
    118  C         20.4810  -15.1660   -1.1580 C.2   177  HIS177      0.2291
    119  O         21.4220  -14.8280   -1.8450 O.2   177  HIS177     -0.2864
    120  CB        21.5780  -14.1470    0.8080 C.3   177  HIS177      0.0771
    121  CG        21.6040  -14.0870    2.3070 C.ar  177  HIS177      0.0820
    122  ND1       22.6500  -14.6520    3.0300 N.ar  177  HIS177     -0.2267
    123  CD2       20.6990  -13.5580    3.1780 C.ar  177  HIS177      0.1154
    124  CE1       22.3710  -14.4380    4.3190 C.ar  177  HIS177      0.1986
    125  NE2       21.2000  -13.7940    4.4400 N.ar  177  HIS177     -0.2212
    126  N         11.7330  -10.3110    7.4170 N.3   203  GLU203     -0.1245
    127  CA        12.3960  -10.2060    8.7210 C.3   203  GLU203      0.1567
    128  C         12.6600   -8.7560    9.1070 C.2   203  GLU203      0.2260
    129  O         13.7730   -8.2420    9.2640 O.2   203  GLU203     -0.2867
    130  CB        13.7360  -10.9820    8.6100 C.3   203  GLU203      0.0388
    131  CG        14.6760  -10.5930    7.4210 C.3   203  GLU203      0.1160
    132  CD        15.9930  -11.3490    7.4950 C.2   203  GLU203      0.3649
    133  OE1       16.6840  -11.3390    8.5140 O.co2 203  GLU203     -0.2457
    134  OE2       16.3050  -12.0730    6.4290 O.co2 203  GLU203     -0.2457
    135  N         30.2040   -7.0750   11.7300 N.3   220  TRP220     -0.1241
    136  CA        28.9680   -7.8230   11.6640 C.3   220  TRP220      0.1605
    137  C         27.8780   -7.1630   12.4690 C.2   220  TRP220      0.2264
    138  O         26.7500   -6.9140   12.0080 O.2   220  TRP220     -0.2867
    139  CB        29.1900   -9.2340   12.2490 C.3   220  TRP220      0.0550
    140  CG        29.9460  -10.1260   11.3080 C.ar  220  TRP220      0.0003
    141  CD1       31.2710  -10.4790   11.3730 C.ar  220  TRP220      0.0946
    142  CD2       29.4070  -10.7600   10.1510 C.ar  220  TRP220      0.0152
    143  NE1       31.5970  -11.2940   10.3260 N.ar  220  TRP220     -0.2442
    144  CE2       30.4640  -11.4950    9.5640 C.ar  220  TRP220      0.0810
    145  CE3       28.1300  -10.7540    9.5830 C.ar  220  TRP220      0.0012
    146  CZ2       30.2660  -12.2640    8.4360 C.ar  220  TRP220      0.0191
    147  CZ3       27.9320  -11.5030    8.4500 C.ar  220  TRP220      0.0001
    148  CH2       28.9850  -12.2560    7.8850 C.ar  220  TRP220      0.0015
    149  N         11.6800  -13.2490   12.1160 N.3   234  GLU234     -0.1245
    150  CA        11.8720  -13.7380   10.7830 C.3   234  GLU234      0.1567
    151  C         11.2270  -15.0960   10.5510 C.2   234  GLU234      0.2260
    152  O         11.2300  -16.0040   11.3880 O.2   234  GLU234     -0.2867
    153  CB        13.3830  -13.8050   10.4530 C.3   234  GLU234      0.0388
    154  CG        13.7220  -14.4410    9.0830 C.3   234  GLU234      0.1160
    155  CD        15.2000  -14.4510    8.7480 C.2   234  GLU234      0.3649
    156  OE1       15.6390  -14.4280    7.6010 O.co2 234  GLU234     -0.2457
    157  OE2       15.9820  -14.5200    9.7820 O.co2 234  GLU234     -0.2457
@<TRIPOS>BOND
     1   119   118    2
     2   118   117    1
     3    97    96    1
     4    97    98    2
     5   117   116    1
     6   117   120    1
     7   105   106    1
     8   116   107   am
     9   120   121    1
    10    96    99    1
    11    96    95    1
    12    99   100    1
    13   107   106    1
    14   107   108    2
    15   106   109    1
    16    94    93    1
    17    18    17    1
    18   121   122   ar
    19   121   123   ar
    20   100   101   ar
    21   100   102   ar
    22   101   103   ar
    23   109   110    1
    24    15    17   ar
    25    15    13   ar
    26   122   124   ar
    27    17    16   ar
    28    93    90    1
    29   123   125   ar
    30   103   104   ar
    31   102   104   ar
    32    13    12   ar
    33   110   111   ar
    34   110   112   ar
    35    16    14   ar
    36    91    90    1
    37    91    92    2
    38   124   125   ar
    39    90    89    1
    40   111   113   ar
    41   112   114   ar
    42    89    79   am
    43    12    14   ar
    44    12    11    1
    45    79    80    2
    46    79    78    1
    47   113   115   ar
    48     9     8    1
    49     9    10    2
    50    78    77    1
    51    78    81    1
    52     8    11    1
    53     8     7    1
    54   114   115   ar
    55   134   132   ar
    56    75    74   ar
    57    83    85   ar
    58    83    82   ar
    59    73    74    1
    60    73    70    1
    61    85    87   ar
    62    81    82    1
    63    68    66    1
    64   126   127    1
    65   131   132    1
    66   131   130    1
    67    69    70    1
    68    82    84   ar
    69   132   133   ar
    70    74    76   ar
    71   156   155   ar
    72    87    88    1
    73    87    86   ar
    74   148   146   ar
    75   148   147   ar
    76    84    86   ar
    77    70    71    1
    78   146   144   ar
    79   147   145   ar
    80    72    71    2
    81   130   127    1
    82   127   128    1
    83    66    67    1
    84    66    63    1
    85   155   154    1
    86   155   157   ar
    87    45    46   ar
    88    45    43   ar
    89   154   153    1
    90   128   129    2
    91    19    20    1
    92     1     2    1
    93     4     3    2
    94   144   142   ar
    95   144   143   ar
    96   145   142   ar
    97     2     3    1
    98     2     5    1
    99    46    44   ar
   100    64    63    1
   101    64    65    2
   102    63    62    1
   103    43    42   ar
   104   142   140   ar
   105    23    20    1
   106    23    24    1
   107   143   141   ar
   108    20    21    1
   109   153   150    1
   110   151   150    1
   111   151   152    2
   112     6     5    1
   113   150   149    1
   114    22    21    2
   115    44    42   ar
   116    42    41    1
   117    62    57   am
   118    58    57    2
   119   140   141   ar
   120   140   139    1
   121    24    25   ar
   122    24    26   ar
   123    54    52   ar
   124   136   135    1
   125   136   139    1
   126   136   137    1
   127    53    52   ar
   128    57    56    1
   129    25    27   ar
   130   138   137    2
   131    41    38    1
   132    26    28   ar
   133    52    51    1
   134    36    35    1
   135    27    29   ar
   136    56    55    1
   137    56    59    1
   138    38    37    1
   139    38    39    1
   140    28    29   ar
   141    60    59    1
   142    55    49   am
   143    51    48    1
   144    29    30    1
   145    59    61    1
   146    49    50    2
   147    49    48    1
   148    40    39    2
   149    35    32    1
   150    48    47    1
   151    31    32    1
   152    32    33    1
   153    33    34    2
