@<TRIPOS>MOLECULE
tmp/1c2hA00.pdb
 172 173 0 0 0
SMALL
GASTEIGER

@<TRIPOS>ATOM
      1  N         47.2630   23.1090   38.9380 N.3    24  PHE24      -0.1227
      2  CA        46.8010   23.7530   40.1980 C.3    24  PHE24       0.1736
      3  C         45.9160   22.8110   41.0240 C.2    24  PHE24       0.2595
      4  O         45.6460   23.1140   42.1740 O.2    24  PHE24      -0.2718
      5  CB        46.0510   25.0900   39.8440 C.3    24  PHE24       0.0547
      6  CG        44.7440   24.8680   39.0920 C.ar   24  PHE24      -0.0202
      7  CD1       43.5760   24.6600   39.8060 C.ar   24  PHE24      -0.0042
      8  CD2       44.7280   24.8490   37.7060 C.ar   24  PHE24      -0.0042
      9  CE1       42.4010   24.4380   39.1560 C.ar   24  PHE24      -0.0003
     10  CE2       43.5390   24.6210   37.0490 C.ar   24  PHE24      -0.0003
     11  CZ        42.3710   24.4170   37.7820 C.ar   24  PHE24      -0.0000
     12  N         45.4850   21.7050   40.4780 N.am   25  CYS25      -0.1970
     13  CA        44.6130   20.7390   41.2420 C.3    25  CYS25       0.1712
     14  C         44.5950   19.4060   40.5140 C.2    25  CYS25       0.2296
     15  O         44.9710   19.3520   39.3570 O.2    25  CYS25      -0.2864
     16  CB        43.1460   21.2340   41.3480 C.3    25  CYS25       0.0983
     17  SG        42.7600   22.3860   42.7000 S.3    25  CYS25      -0.0798
     18  N         36.5280   23.6580   45.4190 N.3    40  HIS40      -0.1226
     19  CA        37.4650   24.7880   45.7300 C.3    40  HIS40       0.1752
     20  C         38.5700   24.9050   44.6960 C.2    40  HIS40       0.2596
     21  O         39.4000   25.7930   44.7730 O.2    40  HIS40      -0.2718
     22  CB        38.0480   24.6270   47.1960 C.3    40  HIS40       0.0759
     23  CG        39.1050   23.6100   47.4410 C.ar   40  HIS40       0.0818
     24  ND1       38.9040   22.3750   47.7500 N.ar   40  HIS40      -0.2268
     25  CD2       40.4650   23.7540   47.3970 C.ar   40  HIS40       0.1154
     26  CE1       40.0150   21.7550   47.8950 C.ar   40  HIS40       0.1986
     27  NE2       40.9880   22.5870   47.6830 N.ar   40  HIS40      -0.2212
     28  N         38.5220   24.0140   43.7360 N.am   41  CYS41      -0.1956
     29  CA        39.5000   24.0000   42.6240 C.3    41  CYS41       0.1843
     30  C         38.8120   24.6950   41.4140 C.2    41  CYS41       0.2625
     31  O         39.3480   24.7460   40.3320 O.2    41  CYS41      -0.2714
     32  CB        39.8540   22.5850   42.2100 C.3    41  CYS41       0.0997
     33  SG        40.9840   21.7570   43.3460 S.3    41  CYS41      -0.0797
     34  N         37.6430   25.2350   41.6000 N.am   42  TYR42      -0.1960
     35  CA        36.9510   25.9080   40.4790 C.3    42  TYR42       0.1771
     36  C         37.7440   27.1350   39.9450 C.2    42  TYR42       0.2619
     37  O         38.2440   27.9550   40.6950 O.2    42  TYR42      -0.2715
     38  CB        35.5460   26.3660   40.9470 C.3    42  TYR42       0.0574
     39  CG        34.9370   27.2850   39.8720 C.ar   42  TYR42      -0.0198
     40  CD1       35.0060   28.6520   40.0610 C.ar   42  TYR42      -0.0009
     41  CD2       34.3870   26.7920   38.6790 C.ar   42  TYR42      -0.0009
     42  CE1       34.5290   29.4960   39.1000 C.ar   42  TYR42       0.0417
     43  CE2       33.9260   27.6640   37.7000 C.ar   42  TYR42       0.0417
     44  CZ        33.9950   29.0190   37.9280 C.ar   42  TYR42       0.1957
     45  OH        33.5640   29.9180   36.9850 O.3    42  TYR42      -0.2866
     46  N         37.7990   27.1690   38.6480 N.am   43  LYS43      -0.1977
     47  CA        38.4610   28.2000   37.7970 C.3    43  LYS43       0.1596
     48  C         37.7580   28.1390   36.4600 C.2    43  LYS43       0.2287
     49  O         37.1050   27.1660   36.1270 O.2    43  LYS43      -0.2864
     50  CB        39.9140   27.9200   37.3580 C.3    43  LYS43       0.0298
     51  CG        40.8460   28.2430   38.3820 C.3    43  LYS43       0.0038
     52  CD        42.2530   28.1490   37.7650 C.3    43  LYS43       0.0206
     53  CE        43.1950   28.4990   38.9160 C.3    43  LYS43       0.1093
     54  NZ        44.6040   28.2350   38.6030 N.3    43  LYS43      -0.1314
     55  N         50.4210   12.9480   54.6880 N.3   171  ASP171     -0.1225
     56  CA        49.1150   13.6360   54.4150 C.3   171  ASP171      0.1805
     57  C         49.0880   14.1070   52.9410 C.2   171  ASP171      0.2598
     58  O         50.1070   14.0360   52.2540 O.2   171  ASP171     -0.2718
     59  CB        49.0070   14.8740   55.3530 C.3   171  ASP171      0.1424
     60  CG        47.6310   15.6110   55.4160 C.2   171  ASP171      0.3668
     61  OD1       47.6610   16.6970   55.9620 O.co2 171  ASP171     -0.2456
     62  OD2       46.6430   15.0780   54.9500 O.co2 171  ASP171     -0.2456
     63  N         47.9280   14.5840   52.5120 N.am  172  SER172     -0.1938
     64  CA        47.7820   15.1100   51.1320 C.3   172  SER172      0.2055
     65  C         48.1110   16.6220   51.4860 C.2   172  SER172      0.2643
     66  O         48.3060   16.9780   52.6490 O.2   172  SER172     -0.2714
     67  CB        46.3230   14.9270   50.5850 C.3   172  SER172      0.2130
     68  OG        45.4920   15.4180   51.6130 O.3   172  SER172     -0.2179
     69  N         48.1520   17.4880   50.5100 N.am  173  CYS173     -0.1953
     70  CA        48.4800   18.9050   50.7900 C.3   173  CYS173      0.1843
     71  C         48.0250   19.7500   49.5820 C.2   173  CYS173      0.2625
     72  O         47.5200   19.2060   48.6050 O.2   173  CYS173     -0.2714
     73  CB        50.0220   18.9320   50.9930 C.3   173  CYS173      0.0997
     74  SG        50.7410   20.4210   51.6820 S.3   173  CYS173     -0.0797
     75  N         48.2370   21.0310   49.6880 N.am  174  GLN174     -0.1963
     76  CA        47.8570   21.9860   48.6040 C.3   174  GLN174      0.1733
     77  C         48.4940   21.4270   47.3060 C.2   174  GLN174      0.2616
     78  O         49.6520   21.0410   47.2700 O.2   174  GLN174     -0.2715
     79  CB        48.4270   23.4240   48.9330 C.3   174  GLN174      0.0408
     80  CG        47.9780   24.4830   47.8720 C.3   174  GLN174      0.0908
     81  CD        48.3940   25.9180   48.3080 C.2   174  GLN174      0.2608
     82  OE1       48.0170   26.9520   47.7920 O.2   174  GLN174     -0.2717
     83  NE2       49.2050   26.0930   49.2930 N.am  174  GLN174     -0.0878
     84  N         47.6950   21.3900   46.2740 N.am  175  GLY175     -0.1955
     85  CA        48.1870   20.8790   44.9310 C.3   175  GLY175      0.1869
     86  C         47.6060   19.5110   44.6500 C.2   175  GLY175      0.2309
     87  O         47.4500   19.1090   43.5230 O.2   175  GLY175     -0.2863
     88  N         44.7390   18.7620   46.0020 N.3   177  SER177     -0.1217
     89  CA        43.2990   19.2290   46.0260 C.3   177  SER177      0.1889
     90  C         42.5060   18.7010   44.8500 C.2   177  SER177      0.2288
     91  O         42.9960   18.8270   43.7450 O.2   177  SER177     -0.2866
     92  CB        43.2130   20.7380   45.9180 C.3   177  SER177      0.2089
     93  OG        44.3480   21.0740   46.7030 O.3   177  SER177     -0.2183
     94  N         40.3470   15.0010   47.7390 N.3   191  VAL191     -0.1231
     95  CA        41.2500   15.7890   48.6410 C.3   191  VAL191      0.1692
     96  C         40.5780   17.1500   48.7960 C.2   191  VAL191      0.2593
     97  O         40.3940   17.8540   47.8190 O.2   191  VAL191     -0.2718
     98  CB        42.6460   15.8950   47.9760 C.3   191  VAL191      0.0266
     99  CG1       43.5950   16.7050   48.8500 C.3   191  VAL191      0.0020
    100  CG2       43.2600   14.5070   47.7870 C.3   191  VAL191      0.0020
    101  N         40.2520   17.4970   50.0040 N.am  192  SER192     -0.1938
    102  CA        39.5660   18.7900   50.2720 C.3   192  SER192      0.2055
    103  C         40.3170   19.7850   51.1800 C.2   192  SER192      0.2643
    104  O         40.7020   20.8550   50.7400 O.2   192  SER192     -0.2714
    105  CB        38.1670   18.3850   50.8480 C.3   192  SER192      0.2130
    106  OG        37.3640   19.5330   51.0600 O.3   192  SER192     -0.2179
    107  N         40.4920   19.4360   52.4330 N.am  193  TRP193     -0.1959
    108  CA        41.2080   20.4070   53.2980 C.3   193  TRP193      0.1771
    109  C         41.8970   19.7320   54.4660 C.2   193  TRP193      0.2620
    110  O         41.8860   18.5270   54.5720 O.2   193  TRP193     -0.2715
    111  CB        40.1920   21.4960   53.7930 C.3   193  TRP193      0.0590
    112  CG        39.0000   21.0190   54.6320 C.ar  193  TRP193      0.0006
    113  CD1       37.8450   20.5000   54.1290 C.ar  193  TRP193      0.0946
    114  CD2       38.8920   21.0760   56.0060 C.ar  193  TRP193      0.0152
    115  NE1       37.0980   20.2670   55.1990 N.ar  193  TRP193     -0.2442
    116  CE2       37.6280   20.5770   56.3730 C.ar  193  TRP193      0.0810
    117  CE3       39.7670   21.5070   57.0210 C.ar  193  TRP193      0.0012
    118  CZ2       37.2510   20.5130   57.7010 C.ar  193  TRP193      0.0191
    119  CZ3       39.3720   21.4340   58.3670 C.ar  193  TRP193      0.0001
    120  CH2       38.1180   20.9420   58.7020 C.ar  193  TRP193      0.0015
    121  N         42.4870   20.5340   55.3010 N.am  194  GLY194     -0.1940
    122  CA        43.2010   20.0400   56.5060 C.3   194  GLY194      0.2014
    123  C         43.8000   21.2640   57.1730 C.2   194  GLY194      0.2640
    124  O         43.5090   22.3680   56.7550 O.2   194  GLY194     -0.2714
    125  N         44.5990   21.0620   58.1710 N.am  195  SER195     -0.1935
    126  CA        45.2620   22.1850   58.9170 C.3   195  SER195      0.2055
    127  C         46.7140   21.9600   58.5210 C.2   195  SER195      0.2644
    128  O         47.3120   20.9900   58.9680 O.2   195  SER195     -0.2714
    129  CB        45.0900   22.0170   60.4480 C.3   195  SER195      0.2130
    130  OG        45.5660   23.2370   61.0150 O.3   195  SER195     -0.2179
    131  N         47.2130   22.8520   57.7130 N.am  196  GLY196     -0.1939
    132  CA        48.6200   22.7280   57.2370 C.3   196  GLY196      0.2014
    133  C         48.6320   21.3450   56.5780 C.2   196  GLY196      0.2639
    134  O         47.5960   20.8670   56.1090 O.2   196  GLY196     -0.2714
    135  N         49.7750   20.7410   56.5470 N.am  197  CYS197     -0.1967
    136  CA        49.9010   19.3970   55.9470 C.3   197  CYS197      0.1712
    137  C         50.7860   18.6060   56.9110 C.2   197  CYS197      0.2296
    138  O         51.7260   19.1330   57.4710 O.2   197  CYS197     -0.2864
    139  CB        50.5710   19.4960   54.5600 C.3   197  CYS197      0.0983
    140  SG        49.7140   20.5930   53.4120 S.3   197  CYS197     -0.0798
    141  N         46.2190   16.4690   63.1810 N.3   202  LYS202     -0.1245
    142  CA        45.4860   17.3110   62.1810 C.3   202  LYS202      0.1561
    143  C         45.4750   16.4880   60.8760 C.2   202  LYS202      0.2260
    144  O         46.1840   16.8660   59.9500 O.2   202  LYS202     -0.2867
    145  CB        46.2190   18.6520   61.8910 C.3   202  LYS202      0.0271
    146  CG        46.0690   19.6470   63.0800 C.3   202  LYS202      0.0035
    147  CD        44.5690   20.0770   63.2270 C.3   202  LYS202      0.0206
    148  CE        44.3710   20.9540   64.4820 C.3   202  LYS202      0.1093
    149  NZ        42.9320   21.2930   64.6210 N.3   202  LYS202     -0.1314
    150  N         44.0560   14.7210   57.2440 N.3   204  GLY204     -0.1210
    151  CA        43.4210   15.3640   56.0780 C.3   204  GLY204      0.1956
    152  C         41.9130   15.0830   56.1210 C.2   204  GLY204      0.2612
    153  O         41.5090   14.0720   56.6780 O.2   204  GLY204     -0.2717
    154  N         41.1650   15.9900   55.5320 N.am  205  VAL205     -0.1965
    155  CA        39.6790   15.9000   55.4590 C.3   205  VAL205      0.1727
    156  C         39.3820   15.7790   53.9610 C.2   205  VAL205      0.2616
    157  O         39.8990   16.5140   53.1410 O.2   205  VAL205     -0.2715
    158  CB        39.0590   17.1880   56.0970 C.3   205  VAL205      0.0290
    159  CG1       37.5530   16.9750   56.2000 C.3   205  VAL205      0.0023
    160  CG2       39.6360   17.4220   57.5300 C.3   205  VAL205      0.0023
    161  N         38.5400   14.8260   53.6990 N.am  206  TYR206     -0.1974
    162  CA        38.0950   14.4660   52.3320 C.3   206  TYR206      0.1639
    163  C         36.5670   14.5050   52.1360 C.2   206  TYR206      0.2290
    164  O         35.8510   14.2490   53.0870 O.2   206  TYR206     -0.2864
    165  CB        38.6100   13.0380   52.0590 C.3   206  TYR206      0.0560
    166  CG        40.1170   12.9860   52.2930 C.ar  206  TYR206     -0.0198
    167  CD1       40.9350   13.1970   51.1900 C.ar  206  TYR206     -0.0009
    168  CD2       40.6790   12.7870   53.5540 C.ar  206  TYR206     -0.0009
    169  CE1       42.2880   13.2170   51.3340 C.ar  206  TYR206      0.0417
    170  CE2       42.0510   12.8060   53.7050 C.ar  206  TYR206      0.0417
    171  CZ        42.8570   13.0240   52.5930 C.ar  206  TYR206      0.1957
    172  OH        44.2280   13.0960   52.6390 O.3   206  TYR206     -0.2866
@<TRIPOS>BOND
     1    49    48    2
     2    48    47    1
     3    45    44    1
     4    10     8   ar
     5    10    11   ar
     6    50    47    1
     7    50    51    1
     8    43    44   ar
     9    43    41   ar
    10     8     6   ar
    11    52    51    1
    12    52    53    1
    13    11     9   ar
    14    47    46    1
    15    44    42   ar
    16    54    53    1
    17    46    36   am
    18    41    39   ar
    19     1     2    1
    20     6     7   ar
    21     6     5    1
    22    42    40   ar
    23     9     7   ar
    24    15    14    2
    25     5     2    1
    26    39    40   ar
    27    39    38    1
    28    36    35    1
    29    36    37    2
    30     2     3    1
    31    31    30    2
    32    12     3   am
    33    12    13    1
    34    35    38    1
    35    35    34    1
    36    14    13    1
    37     3     4    2
    38    13    16    1
    39    16    17    1
    40    30    34   am
    41    30    29    1
    42    32    29    1
    43    32    33    1
    44    29    28    1
    45    17    33    1
    46    87    86    2
    47    28    20   am
    48    91    90    2
    49    86    85    1
    50    20    21    2
    51    20    19    1
    52    90    89    1
    53    85    84    1
    54    18    19    1
    55    19    22    1
    56    92    89    1
    57    92    93    1
    58    88    89    1
    59    84    77   am
    60    22    23    1
    61    78    77    2
    62    77    76    1
    63    25    23   ar
    64    25    27   ar
    65    23    24   ar
    66    27    26   ar
    67    94    95    1
    68    24    26   ar
    69   100    98    1
    70    82    81    2
    71    97    96    2
    72    80    81    1
    73    80    79    1
    74    98    95    1
    75    98    99    1
    76    81    83   am
    77    76    79    1
    78    76    75    1
    79    72    71    2
    80    95    96    1
    81    96   101   am
    82    71    75   am
    83    71    70    1
    84   101   102    1
    85   102   105    1
    86   102   103    1
    87    69    70    1
    88    69    65   am
    89    67    64    1
    90    67    68    1
    91   104   103    2
    92    70    73    1
    93   105   106    1
    94    73    74    1
    95    64    65    1
    96    64    63    1
    97   103   107   am
    98   167   169   ar
    99   167   166   ar
   100   169   171   ar
   101    65    66    2
   102    74   140    1
   103   165   166    1
   104   165   162    1
   105   163   162    1
   106   163   164    2
   107    58    57    2
   108   166   168   ar
   109   162   161    1
   110   107   108    1
   111    63    57   am
   112   171   172    1
   113   171   170   ar
   114    57    56    1
   115   157   156    2
   116   108   111    1
   117   108   109    1
   118   140   139    1
   119   168   170   ar
   120   161   156   am
   121   111   112    1
   122   156   155    1
   123   113   112   ar
   124   113   115   ar
   125    56    55    1
   126    56    59    1
   127   109   110    2
   128   109   121   am
   129   139   136    1
   130   112   114   ar
   131    62    60   ar
   132   115   116   ar
   133   121   122    1
   134    59    60    1
   135    60    61   ar
   136   155   154    1
   137   155   158    1
   138   154   152   am
   139   136   135    1
   140   136   137    1
   141   114   116   ar
   142   114   117   ar
   143   151   152    1
   144   151   150    1
   145   158   159    1
   146   158   160    1
   147   134   133    2
   148   152   153    2
   149   116   118   ar
   150   122   123    1
   151   135   133   am
   152   133   132    1
   153   124   123    2
   154   137   138    2
   155   117   119   ar
   156   123   125   am
   157   132   131    1
   158   118   120   ar
   159   131   127   am
   160   125   126    1
   161   119   120   ar
   162   127   126    1
   163   127   128    2
   164   126   129    1
   165   144   143    2
   166   129   130    1
   167   143   142    1
   168   145   142    1
   169   145   146    1
   170   142   141    1
   171   146   147    1
   172   147   148    1
   173   148   149    1
