@<TRIPOS>MOLECULE
tmp/1c2jA00.pdb
 93 94 0 0 0
SMALL
GASTEIGER

@<TRIPOS>ATOM
      1  N         47.3050   23.1610   38.9180 N.3    24  PHE24      -0.1227
      2  CA        46.8130   23.8170   40.1760 C.3    24  PHE24       0.1736
      3  C         45.9320   22.8520   40.9950 C.2    24  PHE24       0.2595
      4  O         45.6930   23.1350   42.1500 O.2    24  PHE24      -0.2718
      5  CB        46.0190   25.1130   39.8490 C.3    24  PHE24       0.0547
      6  CG        44.6720   24.8620   39.1740 C.ar   24  PHE24      -0.0202
      7  CD1       43.5220   24.6440   39.9240 C.ar   24  PHE24      -0.0042
      8  CD2       44.5980   24.8370   37.8050 C.ar   24  PHE24      -0.0042
      9  CE1       42.3340   24.4060   39.3020 C.ar   24  PHE24      -0.0003
     10  CE2       43.4080   24.5990   37.1750 C.ar   24  PHE24      -0.0003
     11  CZ        42.2660   24.3820   37.9270 C.ar   24  PHE24      -0.0000
     12  N         45.4440   21.7730   40.4310 N.am   25  CYS25      -0.1970
     13  CA        44.6000   20.8000   41.1920 C.3    25  CYS25       0.1712
     14  C         44.6000   19.4590   40.4560 C.2    25  CYS25       0.2296
     15  O         44.9800   19.3940   39.2920 O.2    25  CYS25      -0.2864
     16  CB        43.1220   21.3170   41.3110 C.3    25  CYS25       0.0983
     17  SG        42.7280   22.4220   42.7000 S.3    25  CYS25      -0.0798
     18  N         36.4620   23.6980   45.4470 N.3    40  HIS40      -0.1226
     19  CA        37.3690   24.8430   45.7820 C.3    40  HIS40       0.1752
     20  C         38.4990   24.9610   44.7460 C.2    40  HIS40       0.2596
     21  O         39.3510   25.8300   44.8380 O.2    40  HIS40      -0.2718
     22  CB        37.9660   24.7110   47.2450 C.3    40  HIS40       0.0759
     23  CG        38.9790   23.6130   47.4770 C.ar   40  HIS40       0.0818
     24  ND1       38.7460   22.3620   47.6890 N.ar   40  HIS40      -0.2268
     25  CD2       40.3570   23.6920   47.5080 C.ar   40  HIS40       0.1154
     26  CE1       39.8410   21.7050   47.8370 C.ar   40  HIS40       0.1986
     27  NE2       40.8610   22.4980   47.7310 N.ar   40  HIS40      -0.2212
     28  N         38.4750   24.0790   43.7610 N.am   41  CYS41      -0.1956
     29  CA        39.4690   24.0580   42.6420 C.3    41  CYS41       0.1843
     30  C         38.7930   24.7370   41.4370 C.2    41  CYS41       0.2625
     31  O         39.3580   24.7950   40.3660 O.2    41  CYS41      -0.2714
     32  CB        39.8300   22.6410   42.1700 C.3    41  CYS41       0.0997
     33  SG        40.9150   21.7450   43.2890 S.3    41  CYS41      -0.0797
     34  N         37.6040   25.2330   41.6040 N.am   42  TYR42      -0.1960
     35  CA        36.9130   25.9030   40.4590 C.3    42  TYR42       0.1771
     36  C         37.7190   27.1170   39.9130 C.2    42  TYR42       0.2619
     37  O         38.2410   27.9230   40.6760 O.2    42  TYR42      -0.2715
     38  CB        35.5000   26.3870   40.9220 C.3    42  TYR42       0.0574
     39  CG        34.9020   27.3360   39.8450 C.ar   42  TYR42      -0.0198
     40  CD1       35.0100   28.6980   40.0500 C.ar   42  TYR42      -0.0009
     41  CD2       34.3070   26.8670   38.6640 C.ar   42  TYR42      -0.0009
     42  CE1       34.5510   29.5610   39.1080 C.ar   42  TYR42       0.0417
     43  CE2       33.8480   27.7640   37.7200 C.ar   42  TYR42       0.0417
     44  CZ        33.9850   29.1180   37.9640 C.ar   42  TYR42       0.1957
     45  OH        33.5800   30.0760   37.0680 O.3    42  TYR42      -0.2866
     46  N         37.7540   27.1680   38.6170 N.am   43  LYS43      -0.1977
     47  CA        38.4380   28.2190   37.8140 C.3    43  LYS43       0.1596
     48  C         37.7780   28.1520   36.4700 C.2    43  LYS43       0.2287
     49  O         37.1880   27.1580   36.0850 O.2    43  LYS43      -0.2864
     50  CB        39.8880   27.9740   37.4160 C.3    43  LYS43       0.0298
     51  CG        40.8060   28.2070   38.5330 C.3    43  LYS43       0.0038
     52  CD        42.2340   28.1640   37.9410 C.3    43  LYS43       0.0206
     53  CE        43.2270   28.4400   39.0660 C.3    43  LYS43       0.1093
     54  NZ        44.6160   28.1660   38.6310 N.3    43  LYS43      -0.1314
     55  N         48.3590   21.0770   49.6770 N.3   174  GLN174     -0.1231
     56  CA        47.9590   22.0390   48.5970 C.3   174  GLN174      0.1698
     57  C         48.5630   21.5090   47.2980 C.2   174  GLN174      0.2592
     58  O         49.7160   21.1090   47.2560 O.2   174  GLN174     -0.2718
     59  CB        48.5080   23.4360   48.9340 C.3   174  GLN174      0.0381
     60  CG        47.9800   24.4800   47.9200 C.3   174  GLN174      0.0905
     61  CD        48.3150   25.8860   48.4060 C.2   174  GLN174      0.2608
     62  OE1       48.3010   26.8130   47.6220 O.2   174  GLN174     -0.2717
     63  NE2       48.6110   26.1090   49.6570 N.am  174  GLN174     -0.0878
     64  N         47.7670   21.5150   46.2750 N.am  175  GLY175     -0.1957
     65  CA        48.2650   21.0090   44.9590 C.3   175  GLY175      0.1869
     66  C         47.6770   19.6280   44.7190 C.2   175  GLY175      0.2309
     67  O         47.5810   19.2010   43.5960 O.2   175  GLY175     -0.2863
     68  N         44.7420   18.8450   46.0070 N.3   177  SER177     -0.1217
     69  CA        43.2900   19.2510   46.0330 C.3   177  SER177      0.1889
     70  C         42.5250   18.7510   44.8190 C.2   177  SER177      0.2288
     71  O         43.0370   18.9110   43.7270 O.2   177  SER177     -0.2866
     72  CB        43.1670   20.7640   46.0070 C.3   177  SER177      0.2089
     73  OG        44.3010   21.1830   46.7450 O.3   177  SER177     -0.2183
     74  N         40.2240   17.5460   50.0530 N.3   192  SER192     -0.1202
     75  CA        39.5600   18.8390   50.2940 C.3   192  SER192      0.2020
     76  C         40.3010   19.8220   51.1860 C.2   192  SER192      0.2618
     77  O         40.6450   20.8990   50.7150 O.2   192  SER192     -0.2717
     78  CB        38.1040   18.4380   50.8340 C.3   192  SER192      0.2103
     79  OG        37.2910   19.5900   51.0210 O.3   192  SER192     -0.2182
     80  N         40.5290   19.5070   52.4260 N.am  193  TRP193     -0.1975
     81  CA        41.2450   20.4880   53.2660 C.3   193  TRP193      0.1640
     82  C         41.9110   19.8040   54.4240 C.2   193  TRP193      0.2290
     83  O         41.9260   18.5940   54.4970 O.2   193  TRP193     -0.2864
     84  CB        40.2410   21.5770   53.7700 C.3   193  TRP193      0.0576
     85  CG        39.0470   21.0880   54.6180 C.ar  193  TRP193      0.0006
     86  CD1       37.9140   20.5310   54.0970 C.ar  193  TRP193      0.0946
     87  CD2       38.9180   21.1430   55.9920 C.ar  193  TRP193      0.0152
     88  NE1       37.1570   20.2770   55.1650 N.ar  193  TRP193     -0.2442
     89  CE2       37.6630   20.6040   56.3390 C.ar  193  TRP193      0.0810
     90  CE3       39.7630   21.5940   57.0080 C.ar  193  TRP193      0.0012
     91  CZ2       37.2640   20.5190   57.6420 C.ar  193  TRP193      0.0191
     92  CZ3       39.3590   21.5050   58.3370 C.ar  193  TRP193      0.0001
     93  CH2       38.1110   20.9690   58.6510 C.ar  193  TRP193      0.0015
@<TRIPOS>BOND
     1    49    48    2
     2    48    47    1
     3    45    44    1
     4    10     8   ar
     5    10    11   ar
     6    50    47    1
     7    50    51    1
     8    43    44   ar
     9    43    41   ar
    10     8     6   ar
    11    47    46    1
    12    11     9   ar
    13    52    51    1
    14    52    53    1
    15    44    42   ar
    16    46    36   am
    17    54    53    1
    18    41    39   ar
    19     1     2    1
    20    42    40   ar
    21     6     5    1
    22     6     7   ar
    23    15    14    2
    24     9     7   ar
    25    39    40   ar
    26    39    38    1
    27     5     2    1
    28    36    35    1
    29    36    37    2
    30     2     3    1
    31    31    30    2
    32    12     3   am
    33    12    13    1
    34    14    13    1
    35    35    38    1
    36    35    34    1
    37     3     4    2
    38    13    16    1
    39    16    17    1
    40    30    34   am
    41    30    29    1
    42    32    29    1
    43    32    33    1
    44    29    28    1
    45    17    33    1
    46    67    66    2
    47    71    70    2
    48    28    20   am
    49    66    65    1
    50    20    21    2
    51    20    19    1
    52    70    69    1
    53    65    64    1
    54    18    19    1
    55    19    22    1
    56    68    69    1
    57    72    69    1
    58    72    73    1
    59    64    57   am
    60    22    23    1
    61    58    57    2
    62    57    56    1
    63    23    25   ar
    64    23    24   ar
    65    25    27   ar
    66    62    61    2
    67    24    26   ar
    68    27    26   ar
    69    60    61    1
    70    60    59    1
    71    61    63   am
    72    56    59    1
    73    56    55    1
    74    74    75    1
    75    75    78    1
    76    75    76    1
    77    77    76    2
    78    78    79    1
    79    76    80   am
    80    80    81    1
    81    81    84    1
    82    81    82    1
    83    84    85    1
    84    86    85   ar
    85    86    88   ar
    86    82    83    2
    87    85    87   ar
    88    88    89   ar
    89    87    89   ar
    90    87    90   ar
    91    89    91   ar
    92    90    92   ar
    93    91    93   ar
    94    92    93   ar
