@<TRIPOS>MOLECULE
tmp/1c2tA00.pdb
 174 170 0 0 0
SMALL
GASTEIGER

@<TRIPOS>ATOM
      1  N         27.4950   -4.3230   33.1820 N.3    64  ARG64      -0.1245
      2  CA        26.7050   -4.1590   31.9700 C.3    64  ARG64       0.1563
      3  C         27.0530   -5.2610   30.9770 C.2    64  ARG64       0.2260
      4  O         26.1770   -5.7950   30.3120 O.2    64  ARG64      -0.2867
      5  CB        26.9530   -2.7940   31.3350 C.3    64  ARG64       0.0307
      6  CG        26.7360   -1.6240   32.2780 C.3    64  ARG64       0.0489
      7  CD        26.8870   -0.3240   31.5270 C.3    64  ARG64       0.2205
      8  NE        25.7660   -0.0730   30.6210 N.pl3  64  ARG64      -0.0865
      9  CZ        24.6310    0.5090   30.9930 C.cat  64  ARG64       0.5346
     10  NH1       24.4750    0.9330   32.2390 N.pl3  64  ARG64       0.1354
     11  NH2       23.6620    0.6940   30.1160 N.pl3  64  ARG64       0.1354
     12  N         14.4080   -2.1380   18.9510 N.3    85  LEU85      -0.1245
     13  CA        14.2910   -1.4370   20.2220 C.3    85  LEU85       0.1561
     14  C         13.0670   -0.5150   20.1470 C.2    85  LEU85       0.2260
     15  O         13.0330    0.4240   19.3600 O.2    85  LEU85      -0.2867
     16  CB        15.5570   -0.6140   20.5000 C.3    85  LEU85       0.0270
     17  CG        16.9090   -1.3370   20.4030 C.3    85  LEU85       0.0019
     18  CD1       18.0360   -0.3440   20.6950 C.3    85  LEU85       0.0001
     19  CD2       16.9600   -2.5030   21.3860 C.3    85  LEU85       0.0001
     20  N         13.0930    0.9040   24.6330 N.3    88  PHE88      -0.1227
     21  CA        14.0720    0.2520   25.4990 C.3    88  PHE88       0.1736
     22  C         14.9180    1.3460   26.1600 C.2    88  PHE88       0.2595
     23  O         15.7700    1.9550   25.5050 O.2    88  PHE88      -0.2718
     24  CB        14.9580   -0.6600   24.6530 C.3    88  PHE88       0.0547
     25  CG        15.8340   -1.5710   25.4540 C.ar   88  PHE88      -0.0202
     26  CD1       15.2720   -2.5500   26.2660 C.ar   88  PHE88      -0.0042
     27  CD2       17.2230   -1.4700   25.3830 C.ar   88  PHE88      -0.0042
     28  CE1       16.0740   -3.4190   26.9940 C.ar   88  PHE88      -0.0003
     29  CE2       18.0370   -2.3400   26.1130 C.ar   88  PHE88      -0.0003
     30  CZ        17.4560   -3.3190   26.9210 C.ar   88  PHE88      -0.0000
     31  N         14.6940    1.5710   27.4550 N.am   89  MET89      -0.1965
     32  CA        15.3770    2.6290   28.2210 C.3    89  MET89       0.1736
     33  C         16.7230    2.2080   28.7800 C.2    89  MET89       0.2616
     34  O         17.1000    2.6230   29.8780 O.2    89  MET89      -0.2715
     35  CB        14.5190    3.0720   29.4220 C.3    89  MET89       0.0427
     36  CG        13.0430    3.3820   29.1620 C.3    89  MET89       0.0599
     37  SD        12.7400    4.9950   28.4960 S.3    89  MET89      -0.1393
     38  CE        13.6510    4.8770   27.1530 C.3    89  MET89       0.0692
     39  N         17.4510    1.3840   28.0520 N.am   90  ARG90      -0.1963
     40  CA        18.7470    0.9680   28.5390 C.3    90  ARG90       0.1729
     41  C         19.8040    1.0000   27.4420 C.2    90  ARG90       0.2616
     42  O         19.6070    0.4440   26.3610 O.2    90  ARG90      -0.2715
     43  CB        18.6410   -0.4420   29.1480 C.3    90  ARG90       0.0348
     44  CG        19.9620   -1.0090   29.6310 C.3    90  ARG90       0.0492
     45  CD        19.8920   -2.5160   29.7320 C.3    90  ARG90       0.2205
     46  NE        21.2060   -3.0870   30.0020 N.pl3  90  ARG90      -0.0865
     47  CZ        21.8250   -3.0170   31.1740 C.cat  90  ARG90       0.5346
     48  NH1       21.2460   -2.4160   32.2000 N.pl3  90  ARG90       0.1354
     49  NH2       23.0220   -3.5580   31.3220 N.pl3  90  ARG90       0.1354
     50  N         20.9140    1.6820   27.6960 N.am   91  ILE91      -0.1963
     51  CA        22.0430    1.7280   26.7580 C.3    91  ILE91       0.1727
     52  C         22.6770    0.3480   26.5970 C.2    91  ILE91       0.2616
     53  O         23.0170   -0.3050   27.5820 O.2    91  ILE91      -0.2715
     54  CB        23.1690    2.5880   27.2930 C.3    91  ILE91       0.0290
     55  CG1       22.6550    3.9710   27.6730 C.3    91  ILE91       0.0022
     56  CG2       24.2880    2.7420   26.2310 C.3    91  ILE91       0.0023
     57  CD1       22.0900    4.8070   26.5370 C.3    91  ILE91       0.0001
     58  N         22.8810   -0.0570   25.3510 N.am   92  LEU92      -0.1977
     59  CA        23.4810   -1.3440   25.0520 C.3    92  LEU92       0.1596
     60  C         24.9940   -1.2160   24.8350 C.2    92  LEU92       0.2287
     61  O         25.4760   -0.2280   24.2620 O.2    92  LEU92      -0.2864
     62  CB        22.8030   -1.9230   23.8020 C.3    92  LEU92       0.0297
     63  CG        21.3000   -2.0870   24.0120 C.3    92  LEU92       0.0022
     64  CD1       20.6090   -2.4840   22.7150 C.3    92  LEU92       0.0001
     65  CD2       21.0750   -3.1220   25.0840 C.3    92  LEU92       0.0001
     66  N         25.9680   -4.2240   20.4210 N.3    97  VAL97      -0.1245
     67  CA        25.7770   -3.5060   19.1690 C.3    97  VAL97       0.1561
     68  C         26.5220   -4.2390   18.0580 C.2    97  VAL97       0.2260
     69  O         26.0300   -4.3790   16.9290 O.2    97  VAL97      -0.2867
     70  CB        26.3300   -2.0800   19.2730 C.3    97  VAL97       0.0252
     71  CG1       26.2540   -1.3880   17.9150 C.3    97  VAL97       0.0019
     72  CG2       25.5540   -1.3130   20.3130 C.3    97  VAL97       0.0019
     73  N         16.2770    1.1010   16.1250 N.3   106  ASN106     -0.1225
     74  CA        15.7450    1.8880   17.2170 C.3   106  ASN106      0.1785
     75  C         14.9240    3.0440   16.6640 C.2   106  ASN106      0.2597
     76  O         15.1090    3.4740   15.5220 O.2   106  ASN106     -0.2718
     77  CB        16.8830    2.4310   18.0890 C.3   106  ASN106      0.1169
     78  CG        16.3760    3.2580   19.2670 C.2   106  ASN106      0.2627
     79  OD1       15.6190    2.7620   20.1060 O.2   106  ASN106     -0.2716
     80  ND2       16.7850    4.5300   19.3280 N.am  106  ASN106     -0.0877
     81  N         13.9920    3.5330   17.4700 N.am  107  ILE107     -0.1966
     82  CA        13.1830    4.6710   17.0670 C.3   107  ILE107      0.1727
     83  C         13.3000    5.7250   18.1680 C.2   107  ILE107      0.2616
     84  O         12.7750    5.5620   19.2660 O.2   107  ILE107     -0.2715
     85  CB        11.6970    4.2870   16.8310 C.3   107  ILE107      0.0290
     86  CG1       10.9260    5.5090   16.3120 C.3   107  ILE107      0.0022
     87  CG2       11.0630    3.7570   18.0980 C.3   107  ILE107      0.0023
     88  CD1        9.5000    5.1790   15.8750 C.3   107  ILE107      0.0001
     89  N         14.0150    6.8000   17.8570 N.am  108  HIS108     -0.1960
     90  CA        14.2370    7.8910   18.8150 C.3   108  HIS108      0.1772
     91  C         13.1540    8.9730   18.6590 C.2   108  HIS108      0.2462
     92  O         12.8660    9.4150   17.5520 O.2   108  HIS108     -0.2730
     93  CB        15.6030    8.5290   18.5710 C.3   108  HIS108      0.0785
     94  CG        15.9970    9.5360   19.6080 C.ar  108  HIS108      0.0821
     95  ND1       16.2610    9.1890   20.9160 N.ar  108  HIS108     -0.2267
     96  CD2       16.1520   10.8800   19.5380 C.ar  108  HIS108      0.1154
     97  CE1       16.5580   10.2760   21.6060 C.ar  108  HIS108      0.1986
     98  NE2       16.5000   11.3170   20.7940 N.ar  108  HIS108     -0.2212
     99  N         12.5390    9.4030   19.7680 N.am  109  PRO109     -0.2727
    100  CA        11.4810   10.4240   19.8160 C.3   109  PRO109      0.1402
    101  C         11.8390   11.8720   19.5130 C.2   109  PRO109      0.2269
    102  O         11.2970   12.7470   20.1730 O.2   109  PRO109     -0.2865
    103  CB        10.9570   10.2950   21.2470 C.3   109  PRO109      0.0296
    104  CG        12.2160    9.9260   21.9820 C.3   109  PRO109      0.0237
    105  CD        12.7730    8.8530   21.1100 C.3   109  PRO109      0.0939
    106  N         19.2640   11.3350   23.1030 N.3   117  GLY117     -0.1210
    107  CA        18.9420   11.0390   24.4970 C.3   117  GLY117      0.1956
    108  C         17.5050   11.2080   24.9660 C.2   117  GLY117      0.2611
    109  O         16.5440   11.1350   24.1930 O.2   117  GLY117     -0.2717
    110  N         17.3780   11.5010   26.2670 N.am  118  LEU118     -0.1979
    111  CA        16.0880   11.6480   26.9360 C.3   118  LEU118      0.1596
    112  C         15.5170   13.0670   26.9390 C.2   118  LEU118      0.2287
    113  O         16.2090   14.0250   26.5880 O.2   118  LEU118     -0.2864
    114  CB        16.2390   11.1730   28.3900 C.3   118  LEU118      0.0297
    115  CG        16.9380    9.8190   28.5640 C.3   118  LEU118      0.0022
    116  CD1       17.1860    9.5200   30.0440 C.3   118  LEU118      0.0001
    117  CD2       16.0970    8.7220   27.9400 C.3   118  LEU118      0.0001
    118  N         16.3160    4.6560   13.2620 N.3   137  HIS137     -0.1241
    119  CA        17.6770    4.5250   12.7540 C.3   137  HIS137      0.1621
    120  C         18.3620    3.2040   13.0980 C.2   137  HIS137      0.2264
    121  O         17.9000    2.4480   13.9490 O.2   137  HIS137     -0.2867
    122  CB        18.5240    5.6740   13.2970 C.3   137  HIS137      0.0745
    123  CG        18.7700    5.5920   14.7720 C.ar  137  HIS137      0.0817
    124  ND1       19.8110    4.8750   15.3160 N.ar  137  HIS137     -0.2268
    125  CD2       18.0770    6.1010   15.8190 C.ar  137  HIS137      0.1154
    126  CE1       19.7550    4.9490   16.6340 C.ar  137  HIS137      0.1986
    127  NE2       18.7110    5.6870   16.9650 N.ar  137  HIS137     -0.2212
    128  N         21.1390    1.1730   14.8730 N.3   139  VAL139     -0.1231
    129  CA        21.8420    1.3910   16.1310 C.3   139  VAL139      0.1692
    130  C         23.3230    1.1040   15.9850 C.2   139  VAL139      0.2593
    131  O         23.7350    0.0770   15.4300 O.2   139  VAL139     -0.2718
    132  CB        21.3130    0.4910   17.2580 C.3   139  VAL139      0.0266
    133  CG1       22.1400    0.7240   18.5180 C.3   139  VAL139      0.0020
    134  CG2       19.8510    0.7630   17.5280 C.3   139  VAL139      0.0020
    135  N         24.1110    2.0480   16.4800 N.am  140  THR140     -0.1939
    136  CA        25.5760    1.9970   16.4640 C.3   140  THR140      0.2028
    137  C         25.8540    2.3830   17.9380 C.2   140  THR140      0.2642
    138  O         24.9100    2.7440   18.6550 O.2   140  THR140     -0.2714
    139  CB        26.1190    3.0460   15.4140 C.3   140  THR140      0.1808
    140  OG1       25.6040    2.7370   14.1100 O.3   140  THR140     -0.2208
    141  CG2       27.6520    3.0780   15.3870 C.3   140  THR140      0.0379
    142  N         27.0890    2.2590   18.4330 N.am  141  ASP141     -0.1957
    143  CA        27.3860    2.5810   19.8430 C.3   141  ASP141      0.1840
    144  C         27.0240    4.0210   20.2110 C.2   141  ASP141      0.2622
    145  O         26.8200    4.3730   21.3880 O.2   141  ASP141     -0.2715
    146  CB        28.8940    2.4060   20.1140 C.3   141  ASP141      0.1450
    147  CG        29.3950    0.9900   19.8740 C.2   141  ASP141      0.3671
    148  OD1       28.9390    0.0830   20.6030 O.co2 141  ASP141     -0.2456
    149  OD2       30.2350    0.7870   18.9540 O.co2 141  ASP141     -0.2456
    150  N         27.0430    4.8840   19.2280 N.am  142  GLU142     -0.1963
    151  CA        26.7970    6.2970   19.4600 C.3   142  GLU142      0.1733
    152  C         25.3040    6.5130   19.7100 C.2   142  GLU142      0.2616
    153  O         24.4860    6.4420   18.8090 O.2   142  GLU142     -0.2715
    154  CB        27.2170    7.0750   18.2380 C.3   142  GLU142      0.0429
    155  CG        27.5760    6.1910   17.0300 C.3   142  GLU142      0.1163
    156  CD        29.0660    6.2690   16.7150 C.2   142  GLU142      0.3649
    157  OE1       29.6500    7.3610   16.9180 O.co2 142  GLU142     -0.2457
    158  OE2       29.6380    5.2570   16.2380 O.co2 142  GLU142     -0.2457
    159  N         24.9880    6.7630   20.9560 N.am  143  LEU143     -0.1963
    160  CA        23.6090    7.0040   21.4850 C.3   143  LEU143      0.1728
    161  C         22.7860    7.7310   20.4510 C.2   143  LEU143      0.2616
    162  O         22.9690    8.9260   20.2500 O.2   143  LEU143     -0.2715
    163  CB        23.6760    7.8630   22.7170 C.3   143  LEU143      0.0311
    164  CG        22.6910    7.3540   23.7470 C.3   143  LEU143      0.0022
    165  CD1       23.0870    5.9250   23.9400 C.3   143  LEU143      0.0001
    166  CD2       22.7720    8.1820   25.0860 C.3   143  LEU143      0.0001
    167  N         21.7980    7.0880   19.8660 N.am  144  ASP144     -0.1971
    168  CA        21.0580    7.7820   18.8070 C.3   144  ASP144      0.1709
    169  C         21.9290    8.4130   17.6980 C.2   144  ASP144      0.2293
    170  O         21.4460    9.3000   17.0100 O.2   144  ASP144     -0.2864
    171  CB        20.1520    8.8870   19.4250 C.3   144  ASP144      0.1436
    172  CG        19.1960    8.3250   20.4360 C.2   144  ASP144      0.3671
    173  OD1       18.5810    7.2890   20.1170 O.co2 144  ASP144     -0.2456
    174  OD2       19.0620    8.9580   21.5190 O.co2 144  ASP144     -0.2456
@<TRIPOS>BOND
     1   119   120    1
     2   119   118    1
     3   119   122    1
     4   120   121    2
     5   122   123    1
     6   140   139    1
     7   123   124   ar
     8   123   125   ar
     9   128   129    1
    10   124   126   ar
    11   141   139    1
    12   139   136    1
    13   131   130    2
    14    76    75    2
    15   125   127   ar
    16    88    86    1
    17   130   129    1
    18   130   135   am
    19    73    74    1
    20   129   132    1
    21   158   156   ar
    22    86    85    1
    23   136   135    1
    24   136   137    1
    25   126   127   ar
    26    75    74    1
    27    75    81   am
    28   156   157   ar
    29   156   155    1
    30    85    82    1
    31    85    87    1
    32    69    68    2
    33   170   169    2
    34   155   154    1
    35    82    81    1
    36    82    83    1
    37    74    77    1
    38   132   134    1
    39   132   133    1
    40    92    91    2
    41   169   168    1
    42    89    83   am
    43    89    90    1
    44    71    70    1
    45   137   142   am
    46   137   138    2
    47    68    67    1
    48    77    78    1
    49    83    84    2
    50   154   151    1
    51   142   143    1
    52    93    90    1
    53    93    94    1
    54    91    90    1
    55    91    99   am
    56   168   171    1
    57   168   167    1
    58   153   152    2
    59    12    13    1
    60   149   147   ar
    61    67    70    1
    62    67    66    1
    63   150   151    1
    64   150   144   am
    65    78    80   am
    66    78    79    2
    67    70    72    1
    68    15    14    2
    69   171   172    1
    70   151   152    1
    71   101   100    1
    72   101   102    2
    73    96    94   ar
    74    96    98   ar
    75    94    95   ar
    76   152   159   am
    77    99   100    1
    78    99   105    1
    79   100   103    1
    80   143   146    1
    81   143   144    1
    82   167   161   am
    83   147   146    1
    84   147   148   ar
    85   173   172   ar
    86    14    13    1
    87   144   145    2
    88    13    16    1
    89   162   161    2
    90    17    16    1
    91    17    18    1
    92    17    19    1
    93   172   174   ar
    94   161   160    1
    95    98    97   ar
    96    95    97   ar
    97   159   160    1
    98   105   104    1
    99   103   104    1
   100   160   163    1
   101    64    63    1
   102   163   164    1
   103   106   107    1
   104   164   165    1
   105   164   166    1
   106    62    63    1
   107    62    59    1
   108    63    65    1
   109   109   108    2
   110    61    60    2
   111   107   108    1
   112    20    21    1
   113    24    25    1
   114    24    21    1
   115    60    59    1
   116   108   110   am
   117    59    58    1
   118    58    52   am
   119    27    25   ar
   120    27    29   ar
   121    25    26   ar
   122    21    22    1
   123    23    22    2
   124    29    30   ar
   125    22    31   am
   126    56    54    1
   127    26    28   ar
   128   110   111    1
   129    42    41    2
   130    57    55    1
   131   113   112    2
   132    52    51    1
   133    52    53    2
   134    51    54    1
   135    51    50    1
   136    30    28   ar
   137   111   112    1
   138   111   114    1
   139    38    37    1
   140    54    55    1
   141    41    50   am
   142    41    40    1
   143    31    32    1
   144   117   115    1
   145    39    40    1
   146    39    33   am
   147    32    33    1
   148    32    35    1
   149   114   115    1
   150    37    36    1
   151    40    43    1
   152   115   116    1
   153    33    34    2
   154    43    44    1
   155    36    35    1
   156    44    45    1
   157    45    46    1
   158    46    47    2
   159    11     9    1
   160     4     3    2
   161     8     9    2
   162     8     7    1
   163     3     2    1
   164     9    10    1
   165    47    49    1
   166    47    48    1
   167     5     2    1
   168     5     6    1
   169     7     6    1
   170     2     1    1
