@<TRIPOS>MOLECULE
tmp/1c2yC00.pdb
 97 95 0 0 0
SMALL
GASTEIGER

@<TRIPOS>ATOM
      1  N        135.2030   10.7960  161.5820 N.3    21  ALA21      -0.1245
      2  CA       133.8090   11.2040  161.6310 C.3    21  ALA21       0.1562
      3  C        132.9880    9.9590  161.8300 C.2    21  ALA21       0.2260
      4  O        133.2820    8.9240  161.2600 O.2    21  ALA21      -0.2867
      5  CB       133.4120   11.9040  160.3750 C.3    21  ALA21       0.0290
      6  N        129.8960    9.5630  160.9830 N.3    23  PHE23      -0.1227
      7  CA       129.0380    9.3640  159.8190 C.3    23  PHE23       0.1736
      8  C        129.5950    8.2400  158.9430 C.2    23  PHE23       0.2595
      9  O        130.7940    8.1970  158.6680 O.2    23  PHE23      -0.2718
     10  CB       128.9870   10.6540  159.0140 C.3    23  PHE23       0.0547
     11  CG       127.8020   10.7610  158.1060 C.ar   23  PHE23      -0.0202
     12  CD1      127.7030    9.9720  156.9630 C.ar   23  PHE23      -0.0042
     13  CD2      126.7850   11.6650  158.3860 C.ar   23  PHE23      -0.0042
     14  CE1      126.6140   10.0820  156.1160 C.ar   23  PHE23      -0.0003
     15  CE2      125.6930   11.7870  157.5530 C.ar   23  PHE23      -0.0003
     16  CZ       125.6060   10.9920  156.4120 C.ar   23  PHE23      -0.0000
     17  N        128.7220    7.3510  158.4830 N.am   24  ASN24      -0.1974
     18  CA       129.1400    6.2280  157.6450 C.3    24  ASN24       0.1688
     19  C        130.0940    5.3720  158.4300 C.2    24  ASN24       0.2292
     20  O        131.0030    4.7510  157.9010 O.2    24  ASN24      -0.2864
     21  CB       129.8000    6.6980  156.3440 C.3    24  ASN24       0.1181
     22  CG       128.7960    7.0200  155.2790 C.2    24  ASN24       0.2629
     23  OD1      127.8260    6.2840  155.1030 O.2    24  ASN24      -0.2716
     24  ND2      128.9940    8.1360  154.5760 N.am   24  ASN24      -0.0877
     25  N        131.3000   13.9250  164.9230 N.3    54  PRO54      -0.2102
     26  CA       130.1590   13.3490  164.2200 C.3    54  PRO54       0.1504
     27  C        130.2770   13.3510  162.6840 C.2    54  PRO54       0.2576
     28  O        130.1500   12.2860  162.0660 O.2    54  PRO54      -0.2718
     29  CB       128.9920   14.1830  164.7460 C.3    54  PRO54       0.0282
     30  CG       129.6360   15.5070  165.0220 C.3    54  PRO54       0.0208
     31  CD       130.9200   15.1300  165.6730 C.3    54  PRO54       0.0893
     32  N        130.6080   14.4960  162.0820 N.am   55  GLY55      -0.1943
     33  CA       130.6900   14.5560  160.6330 C.3    55  GLY55       0.2014
     34  C        131.9700   15.0920  160.0350 C.2    55  GLY55       0.2639
     35  O        132.6750   15.8880  160.6390 O.2    55  GLY55      -0.2714
     36  N        132.2200   14.7110  158.7940 N.am   56  ALA56      -0.1963
     37  CA       133.4160   15.1210  158.0880 C.3    56  ALA56       0.1728
     38  C        133.6280   16.6070  158.1120 C.2    56  ALA56       0.2616
     39  O        134.7480   17.0700  158.1200 O.2    56  ALA56      -0.2715
     40  CB       133.3590   14.6410  156.6760 C.3    56  ALA56       0.0334
     41  N        132.5460   17.3550  158.1040 N.am   57  TYR57      -0.1960
     42  CA       132.6430   18.7880  158.1260 C.3    57  TYR57       0.1771
     43  C        133.5340   19.1780  159.3030 C.2    57  TYR57       0.2619
     44  O        134.4770   19.9760  159.1760 O.2    57  TYR57      -0.2715
     45  CB       131.2600   19.3640  158.3360 C.3    57  TYR57       0.0574
     46  CG       131.1220   20.7880  157.9010 C.ar   57  TYR57      -0.0198
     47  CD1      131.3670   21.8360  158.7730 C.ar   57  TYR57      -0.0009
     48  CD2      130.7330   21.0960  156.6060 C.ar   57  TYR57      -0.0009
     49  CE1      131.2320   23.1780  158.3520 C.ar   57  TYR57       0.0417
     50  CE2      130.5890   22.4220  156.1800 C.ar   57  TYR57       0.0417
     51  CZ       130.8450   23.4580  157.0530 C.ar   57  TYR57       0.1957
     52  OH       130.7420   24.7560  156.6090 O.3    57  TYR57      -0.2866
     53  N        133.2800   18.5230  160.4290 N.am   58  GLU58      -0.1977
     54  CA       133.9860   18.7790  161.6730 C.3    58  GLU58       0.1602
     55  C        135.4810   18.6480  161.6030 C.2    58  GLU58       0.2287
     56  O        136.2060   19.4180  162.2410 O.2    58  GLU58      -0.2864
     57  CB       133.4480   17.8710  162.7620 C.3    58  GLU58       0.0415
     58  CG       132.0660   18.2690  163.2740 C.3    58  GLU58       0.1163
     59  CD       131.0520   18.5160  162.1700 C.2    58  GLU58       0.3649
     60  OE1      130.9600   19.6760  161.6870 O.co2  58  GLU58      -0.2457
     61  OE2      130.3490   17.5530  161.7950 O.co2  58  GLU58      -0.2457
     62  N        134.1850    9.5060  155.4200 N.3    80  ALA80      -0.1231
     63  CA       133.7120    8.9830  154.1600 C.3    80  ALA80       0.1694
     64  C        132.3970    9.6580  153.8360 C.2    80  ALA80       0.2592
     65  O        131.4720    9.6720  154.6360 O.2    80  ALA80      -0.2718
     66  CB       133.5340    7.4950  154.2520 C.3    80  ALA80       0.0304
     67  N        132.3350   10.2850  152.6830 N.am   81  VAL81      -0.1966
     68  CA       131.1190   10.9400  152.2870 C.3    81  VAL81       0.1727
     69  C        130.7550   10.3680  150.9340 C.2    81  VAL81       0.2616
     70  O        131.4300   10.6290  149.9330 O.2    81  VAL81      -0.2715
     71  CB       131.2900   12.4780  152.2600 C.3    81  VAL81       0.0290
     72  CG1      132.6490   12.8460  151.7170 C.3    81  VAL81       0.0023
     73  CG2      130.1930   13.1340  151.4360 C.3    81  VAL81       0.0023
     74  N        129.7670    9.4770  150.9500 N.am   82  VAL82      -0.1977
     75  CA       129.2720    8.8320  149.7410 C.3    82  VAL82       0.1596
     76  C        128.2530    9.7260  149.0490 C.2    82  VAL82       0.2287
     77  O        127.3780   10.3140  149.7030 O.2    82  VAL82      -0.2864
     78  CB       128.5620    7.5100  150.0520 C.3    82  VAL82       0.0276
     79  CG1      129.5460    6.4980  150.5680 C.3    82  VAL82       0.0022
     80  CG2      127.4420    7.7420  151.0580 C.3    82  VAL82       0.0022
     81  N        124.6470   18.3610  148.4220 N.3    88  HIS88      -0.1241
     82  CA       125.0300   18.3540  149.8440 C.3    88  HIS88       0.1621
     83  C        126.3670   17.6310  149.9140 C.2    88  HIS88       0.2264
     84  O        127.2890   18.0420  150.6330 O.2    88  HIS88      -0.2867
     85  CB       123.9890   17.6090  150.6970 C.3    88  HIS88       0.0745
     86  CG       123.9110   18.1020  152.1130 C.ar   88  HIS88       0.0817
     87  ND1      124.8970   17.8500  153.0490 N.ar   88  HIS88      -0.2268
     88  CD2      122.9860   18.8770  152.7380 C.ar   88  HIS88       0.1154
     89  CE1      124.5860   18.4530  154.1870 C.ar   88  HIS88       0.1986
     90  NE2      123.4320   19.0850  154.0250 N.ar   88  HIS88      -0.2212
     91  N        129.6510   19.2540  151.7340 N.3    92  VAL92      -0.1245
     92  CA       130.4400   18.5770  152.7260 C.3    92  VAL92       0.1561
     93  C        131.8160   18.3160  152.1800 C.2    92  VAL92       0.2260
     94  O        132.7910   18.8580  152.6680 O.2    92  VAL92      -0.2867
     95  CB       129.8190   17.2520  153.0690 C.3    92  VAL92       0.0252
     96  CG1      130.6830   16.4930  154.0540 C.3    92  VAL92       0.0019
     97  CG2      128.4350   17.4800  153.6230 C.3    92  VAL92       0.0019
@<TRIPOS>BOND
     1    81    82    1
     2    76    77    2
     3    76    75    1
     4    75    78    1
     5    75    74    1
     6    82    83    1
     7    82    85    1
     8    83    84    2
     9    70    69    2
    10    78    79    1
    11    78    80    1
    12    85    86    1
    13    69    74   am
    14    69    68    1
    15    73    71    1
    16    72    71    1
    17    91    92    1
    18    86    88   ar
    19    86    87   ar
    20    93    94    2
    21    93    92    1
    22    71    68    1
    23    68    67    1
    24    67    64   am
    25    92    95    1
    26    88    90   ar
    27    87    89   ar
    28    95    97    1
    29    95    96    1
    30    64    63    1
    31    64    65    2
    32    90    89   ar
    33    63    66    1
    34    63    62    1
    35    24    22   am
    36    23    22    2
    37    22    21    1
    38    14    16   ar
    39    14    12   ar
    40    50    48   ar
    41    50    51   ar
    42    21    18    1
    43    16    15   ar
    44    48    46   ar
    45    52    51    1
    46    40    37    1
    47    12    11   ar
    48    51    49   ar
    49    15    13   ar
    50    18    19    1
    51    18    17    1
    52    46    45    1
    53    46    47   ar
    54    20    19    2
    55    37    38    1
    56    37    36    1
    57    41    38   am
    58    41    42    1
    59    11    13   ar
    60    11    10    1
    61    38    39    2
    62    42    45    1
    63    42    43    1
    64    49    47   ar
    65    17     8   am
    66     9     8    2
    67    36    34   am
    68     8     7    1
    69    10     7    1
    70    44    43    2
    71    43    53   am
    72     7     6    1
    73    34    33    1
    74    34    35    2
    75     5     2    1
    76    53    54    1
    77    33    32    1
    78     4     3    2
    79     1     2    1
    80    55    54    1
    81    55    56    2
    82     2     3    1
    83    54    57    1
    84    60    59   ar
    85    61    59   ar
    86    28    27    2
    87    32    27   am
    88    59    58    1
    89    27    26    1
    90    57    58    1
    91    26    29    1
    92    26    25    1
    93    29    30    1
    94    25    31    1
    95    30    31    1
