@<TRIPOS>MOLECULE
tmp/1c39A01.pdb
 150 143 0 0 0
SMALL
GASTEIGER

@<TRIPOS>ATOM
      1  N        -19.5630  -19.0240   65.6070 N.3    40  PRO40      -0.2102
      2  CA       -18.7530  -19.6160   66.6770 C.3    40  PRO40       0.1504
      3  C        -17.3080  -19.8980   66.2490 C.2    40  PRO40       0.2575
      4  O        -16.6290  -20.7170   66.8700 O.2    40  PRO40      -0.2718
      5  CB       -19.5000  -20.9100   66.9650 C.3    40  PRO40       0.0282
      6  CG       -19.9120  -21.3370   65.5920 C.3    40  PRO40       0.0208
      7  CD       -20.4000  -20.0490   64.9560 C.3    40  PRO40       0.0893
      8  N        -16.8390  -19.2050   65.2110 N.am   41  ASP41      -0.1974
      9  CA       -15.4880  -19.4150   64.6980 C.3    41  ASP41       0.1708
     10  C        -14.5500  -18.2140   64.8210 C.2    41  ASP41       0.2293
     11  O        -13.7890  -17.9180   63.8960 O.2    41  ASP41      -0.2864
     12  CB       -15.5430  -19.8680   63.2330 C.3    41  ASP41       0.1436
     13  CG       -16.3300  -21.1490   63.0410 C.2    41  ASP41       0.3671
     14  OD1      -16.4120  -21.9600   63.9810 O.co2  41  ASP41      -0.2456
     15  OD2      -16.8780  -21.3430   61.9370 O.co2  41  ASP41      -0.2456
     16  N        -11.3350  -16.6650   66.0430 N.3    43  TYR43      -0.1241
     17  CA       -10.0580  -17.2180   66.4610 C.3    43  TYR43       0.1605
     18  C         -9.0240  -16.1380   66.7130 C.2    43  TYR43       0.2264
     19  O         -9.1240  -15.0220   66.2010 O.2    43  TYR43      -0.2867
     20  CB        -9.4970  -18.1530   65.3850 C.3    43  TYR43       0.0534
     21  CG       -10.4230  -19.2460   64.9020 C.ar   43  TYR43      -0.0201
     22  CD1      -10.8430  -19.2800   63.5720 C.ar   43  TYR43      -0.0009
     23  CD2      -10.8200  -20.2820   65.7470 C.ar   43  TYR43      -0.0009
     24  CE1      -11.6260  -20.3210   63.0860 C.ar   43  TYR43       0.0417
     25  CE2      -11.6090  -21.3320   65.2710 C.ar   43  TYR43       0.0417
     26  CZ       -12.0050  -21.3430   63.9370 C.ar   43  TYR43       0.1957
     27  OH       -12.7660  -22.3810   63.4490 O.3    43  TYR43      -0.2866
     28  N         -3.7750  -21.4330   67.2890 N.3    64  GLN64      -0.1245
     29  CA        -5.0880  -20.8790   67.0340 C.3    64  GLN64       0.1566
     30  C         -5.8930  -21.0410   68.3160 C.2    64  GLN64       0.2260
     31  O         -5.9790  -22.1360   68.8690 O.2    64  GLN64      -0.2867
     32  CB        -5.7510  -21.6540   65.9070 C.3    64  GLN64       0.0367
     33  CG        -7.1380  -21.1790   65.5760 C.3    64  GLN64       0.0905
     34  CD        -7.9340  -22.2630   64.9020 C.2    64  GLN64       0.2608
     35  OE1       -8.3770  -22.1180   63.7640 O.2    64  GLN64      -0.2717
     36  NE2       -8.1040  -23.3710   65.5990 N.am   64  GLN64      -0.0878
     37  N         -9.5380  -20.7460   70.0550 N.3    66  GLN66      -0.1245
     38  CA       -10.9890  -20.6460   69.9280 C.3    66  GLN66       0.1566
     39  C        -11.4170  -19.6640   71.0080 C.2    66  GLN66       0.2260
     40  O        -11.4130  -20.0090   72.1870 O.2    66  GLN66      -0.2867
     41  CB       -11.6430  -21.9880   70.1740 C.3    66  GLN66       0.0367
     42  CG       -11.9420  -22.7360   68.8750 C.3    66  GLN66       0.0905
     43  CD       -11.1100  -24.0080   68.7160 C.2    66  GLN66       0.2608
     44  OE1      -11.2480  -24.7110   67.7160 O.2    66  GLN66      -0.2717
     45  NE2      -10.2470  -24.3530   69.6480 N.am   66  GLN66      -0.0878
     46  N        -14.3000  -20.9700   73.6300 N.3    69  ASN69      -0.1240
     47  CA       -13.9480  -21.8520   74.7370 C.3    69  ASN69       0.1653
     48  C        -12.4730  -21.8630   75.1330 C.2    69  ASN69       0.2266
     49  O        -12.0220  -22.7970   75.7980 O.2    69  ASN69      -0.2867
     50  CB       -14.3920  -23.2770   74.4100 C.3    69  ASN69       0.1155
     51  CG       -13.7590  -23.8060   73.1340 C.2    69  ASN69       0.2627
     52  OD1      -13.7790  -23.1410   72.0970 O.2    69  ASN69      -0.2716
     53  ND2      -13.1820  -24.9960   73.2070 N.am   69  ASN69      -0.0877
     54  N         -9.8780  -22.6300   73.5470 N.3    71  LYS71      -0.1245
     55  CA        -9.1880  -23.8250   73.0800 C.3    71  LYS71       0.1561
     56  C         -7.9650  -23.4150   72.2650 C.2    71  LYS71       0.2260
     57  O         -8.0690  -22.5910   71.3530 O.2    71  LYS71      -0.2867
     58  CB       -10.1370  -24.6700   72.2200 C.3    71  LYS71       0.0271
     59  CG       -10.0200  -26.1820   72.4080 C.3    71  LYS71       0.0035
     60  CD        -8.6450  -26.7020   72.0210 C.3    71  LYS71       0.0206
     61  CE        -8.6200  -28.2150   71.9790 C.3    71  LYS71       0.1093
     62  NZ        -9.5720  -28.7300   70.9550 N.3    71  LYS71      -0.1314
     63  N         -5.1350  -24.5770   69.6940 N.3    73  THR73      -0.1218
     64  CA        -4.7860  -25.5920   68.7160 C.3    73  THR73       0.1862
     65  C         -3.4670  -25.2100   68.0530 C.2    73  THR73       0.2287
     66  O         -3.2640  -24.0600   67.6630 O.2    73  THR73      -0.2866
     67  CB        -5.8690  -25.7050   67.6140 C.3    73  THR73       0.1770
     68  OG1       -7.1450  -25.9620   68.2110 O.3    73  THR73      -0.2211
     69  CG2       -5.5260  -26.8340   66.6420 C.3    73  THR73       0.0375
     70  N         -6.2250  -32.9450   62.2680 N.3   100  TYR100     -0.1227
     71  CA        -7.6130  -32.5760   62.0150 C.3   100  TYR100      0.1736
     72  C         -8.4350  -33.7780   62.4850 C.2   100  TYR100      0.2595
     73  O         -7.9230  -34.8960   62.5730 O.2   100  TYR100     -0.2718
     74  CB        -7.8700  -32.3670   60.5170 C.3   100  TYR100      0.0548
     75  CG        -7.5220  -31.0010   59.9590 C.ar  100  TYR100     -0.0200
     76  CD1       -8.3570  -29.9050   60.1680 C.ar  100  TYR100     -0.0009
     77  CD2       -6.3910  -30.8210   59.1690 C.ar  100  TYR100     -0.0009
     78  CE1       -8.0730  -28.6600   59.5960 C.ar  100  TYR100      0.0417
     79  CE2       -6.0990  -29.5820   58.5950 C.ar  100  TYR100      0.0417
     80  CZ        -6.9400  -28.5080   58.8100 C.ar  100  TYR100      0.1957
     81  OH        -6.6450  -27.2830   58.2510 O.3   100  TYR100     -0.2866
     82  N         -9.7150  -33.5540   62.7500 N.am  101  ASP101     -0.1960
     83  CA       -10.5880  -34.6300   63.2080 C.3   101  ASP101      0.1840
     84  C        -11.5440  -35.1100   62.1190 C.2   101  ASP101      0.2622
     85  O        -11.6420  -36.3050   61.8510 O.2   101  ASP101     -0.2715
     86  CB       -11.3820  -34.1920   64.4400 C.3   101  ASP101      0.1450
     87  CG       -10.4940  -33.8910   65.6310 C.2   101  ASP101      0.3671
     88  OD1      -10.4060  -32.7030   66.0210 O.co2 101  ASP101     -0.2456
     89  OD2       -9.8850  -34.8430   66.1720 O.co2 101  ASP101     -0.2456
     90  N        -12.2560  -34.1780   61.4950 N.am  102  ASN102     -0.1958
     91  CA       -13.2150  -34.5210   60.4480 C.3   102  ASN102      0.1819
     92  C        -12.8810  -33.8030   59.1490 C.2   102  ASN102      0.2621
     93  O        -13.7730  -33.3360   58.4410 O.2   102  ASN102     -0.2715
     94  CB       -14.6300  -34.1310   60.8900 C.3   102  ASN102      0.1195
     95  CG       -14.9780  -34.6630   62.2630 C.2   102  ASN102      0.2630
     96  OD1      -14.9900  -33.9140   63.2410 O.2   102  ASN102     -0.2716
     97  ND2      -15.2380  -35.9620   62.3510 N.am  102  ASN102     -0.0877
     98  N        -11.5920  -33.6810   58.8530 N.am  103  HIS103     -0.1973
     99  CA       -11.1530  -32.9990   57.6410 C.3   103  HIS103      0.1656
    100  C         -9.7780  -33.4880   57.2120 C.2   103  HIS103      0.2291
    101  O         -9.0560  -34.1130   57.9950 O.2   103  HIS103     -0.2864
    102  CB       -11.0620  -31.4810   57.8720 C.3   103  HIS103      0.0771
    103  CG       -12.3600  -30.7500   57.7290 C.ar  103  HIS103      0.0820
    104  ND1      -13.0120  -30.1690   58.7980 N.ar  103  HIS103     -0.2267
    105  CD2      -13.1020  -30.4600   56.6350 C.ar  103  HIS103      0.1154
    106  CE1      -14.0970  -29.5500   58.3670 C.ar  103  HIS103      0.1986
    107  NE2      -14.1760  -29.7130   57.0600 N.ar  103  HIS103     -0.2212
    108  N         -2.0720  -30.3590   61.0870 N.3   109  ARG109     -0.1245
    109  CA        -2.2150  -29.0290   60.5130 C.3   109  ARG109      0.1563
    110  C         -0.8360  -28.5220   60.0960 C.2   109  ARG109      0.2260
    111  O          0.1900  -29.0740   60.5000 O.2   109  ARG109     -0.2867
    112  CB        -2.8620  -28.0650   61.5110 C.3   109  ARG109      0.0307
    113  CG        -4.3580  -28.2990   61.7610 C.3   109  ARG109      0.0489
    114  CD        -4.8500  -27.4510   62.9310 C.3   109  ARG109      0.2205
    115  NE        -6.3030  -27.4840   63.1100 N.pl3 109  ARG109     -0.0865
    116  CZ        -6.9630  -28.3950   63.8230 C.cat 109  ARG109      0.5346
    117  NH1       -8.2880  -28.3200   63.9170 N.pl3 109  ARG109      0.1354
    118  NH2       -6.3140  -29.3700   64.4410 N.pl3 109  ARG109      0.1354
    119  N         -7.9950  -20.5750   55.1580 N.3   131  GLU131     -0.1245
    120  CA        -7.7000  -21.9360   55.5520 C.3   131  GLU131      0.1567
    121  C         -8.3020  -22.8800   54.5290 C.2   131  GLU131      0.2260
    122  O         -9.5030  -22.8120   54.2380 O.2   131  GLU131     -0.2867
    123  CB        -8.2800  -22.2780   56.9200 C.3   131  GLU131      0.0388
    124  CG        -7.9490  -23.7050   57.3240 C.3   131  GLU131      0.1160
    125  CD        -8.8060  -24.2370   58.4410 C.2   131  GLU131      0.3649
    126  OE1       -8.5910  -25.4050   58.8200 O.co2 131  GLU131     -0.2457
    127  OE2       -9.6850  -23.5030   58.9450 O.co2 131  GLU131     -0.2457
    128  N         -9.2330  -26.4610   54.0030 N.3   133  ARG133     -0.1245
    129  CA        -9.5030  -27.7080   54.7100 C.3   133  ARG133      0.1563
    130  C        -10.3990  -28.6340   53.8820 C.2   133  ARG133      0.2260
    131  O        -10.8420  -29.6750   54.3730 O.2   133  ARG133     -0.2867
    132  CB       -10.1770  -27.4220   56.0560 C.3   133  ARG133      0.0307
    133  CG       -11.4710  -26.6420   55.9320 C.3   133  ARG133      0.0489
    134  CD       -12.1880  -26.4980   57.2530 C.3   133  ARG133      0.2205
    135  NE       -13.3410  -25.6160   57.1180 N.pl3 133  ARG133     -0.0865
    136  CZ       -13.9970  -25.0750   58.1410 C.cat 133  ARG133      0.5346
    137  NH1      -13.6190  -25.3280   59.3890 N.pl3 133  ARG133      0.1354
    138  NH2      -15.0110  -24.2480   57.9180 N.pl3 133  ARG133      0.1354
    139  N         -3.1010  -23.6070   56.5390 N.3   141  TYR141     -0.1241
    140  CA        -3.5880  -22.3010   56.9720 C.3   141  TYR141      0.1605
    141  C         -2.5970  -21.3400   56.3310 C.2   141  TYR141      0.2264
    142  O         -1.3920  -21.5770   56.3810 O.2   141  TYR141     -0.2867
    143  CB        -3.5070  -22.1330   58.4880 C.3   141  TYR141      0.0534
    144  CG        -4.5090  -22.9340   59.2770 C.ar  141  TYR141     -0.0201
    145  CD1       -4.3530  -24.3040   59.4360 C.ar  141  TYR141     -0.0009
    146  CD2       -5.5850  -22.3120   59.9110 C.ar  141  TYR141     -0.0009
    147  CE1       -5.2310  -25.0400   60.2070 C.ar  141  TYR141      0.0417
    148  CE2       -6.4720  -23.0380   60.6880 C.ar  141  TYR141      0.0417
    149  CZ        -6.2850  -24.4040   60.8310 C.ar  141  TYR141      0.1957
    150  OH        -7.1380  -25.1500   61.6020 O.3   141  TYR141     -0.2866
@<TRIPOS>BOND
     1   130   131    2
     2   130   129    1
     3   128   129    1
     4   122   121    2
     5   121   120    1
     6   129   132    1
     7   119   120    1
     8   120   123    1
     9   133   132    1
    10   133   134    1
    11   141   142    2
    12   141   140    1
    13   139   140    1
    14   105   107   ar
    15   105   103   ar
    16   123   124    1
    17   140   143    1
    18   107   106   ar
    19   135   134    1
    20   135   136    2
    21   100    99    1
    22   100   101    2
    23   124   125    1
    24    99   102    1
    25    99    98    1
    26   103   102    1
    27   103   104   ar
    28   138   136    1
    29   136   137    1
    30    81    80    1
    31   106   104   ar
    32   125   126   ar
    33   125   127   ar
    34    93    92    2
    35   143   144    1
    36    79    80   ar
    37    79    77   ar
    38    80    78   ar
    39    98    92   am
    40    92    91    1
    41    77    75   ar
    42   144   145   ar
    43   144   146   ar
    44   145   147   ar
    45    78    76   ar
    46   146   148   ar
    47    75    76   ar
    48    75    74    1
    49   110   111    2
    50   110   109    1
    51   147   149   ar
    52    91    94    1
    53    91    90    1
    54   109   108    1
    55   109   112    1
    56    74    71    1
    57   148   149   ar
    58   149   150    1
    59    94    95    1
    60    90    84   am
    61   112   113    1
    62   113   114    1
    63    85    84    2
    64    15    13   ar
    65    71    70    1
    66    71    72    1
    67    84    83    1
    68    95    97   am
    69    95    96    2
    70    72    73    2
    71    72    82   am
    72    82    83    1
    73   114   115    1
    74    13    12    1
    75    13    14   ar
    76    24    22   ar
    77    24    26   ar
    78   115   116    2
    79    83    86    1
    80    12     9    1
    81    27    26    1
    82    22    21   ar
    83    35    34    2
    84   116   117    1
    85   116   118    1
    86    11    10    2
    87    26    25   ar
    88    86    87    1
    89     9    10    1
    90     9     8    1
    91    34    33    1
    92    34    36   am
    93    21    20    1
    94    21    23   ar
    95     7     6    1
    96     7     1    1
    97     8     3   am
    98    25    23   ar
    99    20    17    1
   100    33    32    1
   101     6     5    1
   102     1     2    1
   103    87    88   ar
   104    87    89   ar
   105    32    29    1
   106    16    17    1
   107    19    18    2
   108     3     2    1
   109     3     4    2
   110    17    18    1
   111    69    67    1
   112     2     5    1
   113    29    28    1
   114    29    30    1
   115    67    68    1
   116    67    64    1
   117    66    65    2
   118    44    43    2
   119    65    64    1
   120    30    31    2
   121    43    42    1
   122    43    45   am
   123    64    63    1
   124    42    41    1
   125    38    37    1
   126    38    41    1
   127    38    39    1
   128    62    61    1
   129    39    40    2
   130    57    56    2
   131    61    60    1
   132    60    59    1
   133    52    51    2
   134    58    59    1
   135    58    55    1
   136    56    55    1
   137    55    54    1
   138    51    53   am
   139    51    50    1
   140    46    47    1
   141    50    47    1
   142    47    48    1
   143    48    49    2
