@<TRIPOS>MOLECULE
tmp/1c3bB00.pdb
 84 78 0 0 0
SMALL
GASTEIGER

@<TRIPOS>ATOM
      1  N         76.7200    1.2680   29.8740 N.3    61  SER61      -0.1217
      2  CA        75.4130    1.7860   29.5180 C.3    61  SER61       0.1889
      3  C         74.4460    0.8090   28.8870 C.2    61  SER61       0.2288
      4  O         73.3080    1.1690   28.6110 O.2    61  SER61      -0.2866
      5  CB        75.5460    3.0030   28.6160 C.3    61  SER61       0.2089
      6  OG        75.9770    4.1210   29.3750 O.3    61  SER61      -0.2183
      7  N         71.3030    0.5070   30.7090 N.3    64  LYS64      -0.1245
      8  CA        70.1720    1.3650   30.4060 C.3    64  LYS64       0.1561
      9  C         69.0070    0.6180   29.7560 C.2    64  LYS64       0.2260
     10  O         67.8390    1.0300   29.8890 O.2    64  LYS64      -0.2867
     11  CB        70.6440    2.5210   29.5090 C.3    64  LYS64       0.0271
     12  CG        71.7180    3.4320   30.1660 C.3    64  LYS64       0.0035
     13  CD        72.0630    4.6310   29.2590 C.3    64  LYS64       0.0206
     14  CE        72.7660    5.7480   30.0350 C.3    64  LYS64       0.1093
     15  NZ        74.0460    5.2920   30.6620 N.3    64  LYS64      -0.1314
     16  N         75.2790   14.7180   31.2630 N.3   116  LEU116     -0.1231
     17  CA        75.6840   13.3390   31.0020 C.3   116  LEU116      0.1693
     18  C         76.0360   12.6500   32.3040 C.2   116  LEU116      0.2591
     19  O         75.7150   11.4780   32.5090 O.2   116  LEU116     -0.2718
     20  CB        76.9210   13.2970   30.1000 C.3   116  LEU116      0.0284
     21  CG        77.6600   11.9480   30.1050 C.3   116  LEU116      0.0019
     22  CD1       76.8490   10.9310   29.3220 C.3   116  LEU116      0.0001
     23  CD2       79.0430   12.0900   29.4930 C.3   116  LEU116      0.0001
     24  N         76.6870   13.4050   33.1820 N.am  117  GLN117     -0.1979
     25  CA        77.1500   12.8970   34.4630 C.3   117  GLN117      0.1601
     26  C         76.6360   13.6550   35.6810 C.2   117  GLN117      0.2287
     27  O         76.5100   14.8800   35.6560 O.2   117  GLN117     -0.2864
     28  CB        78.6660   12.9810   34.4940 C.3   117  GLN117      0.0394
     29  CG        79.4170   11.6860   34.4290 C.3   117  GLN117      0.0908
     30  CD        80.9090   11.9430   34.2500 C.2   117  GLN117      0.2608
     31  OE1       81.4020   12.0540   33.1180 O.2   117  GLN117     -0.2717
     32  NE2       81.6320   12.0570   35.3660 N.am  117  GLN117     -0.0878
     33  N         71.9860   12.7170   25.4290 N.3   147  TYR147     -0.1241
     34  CA        72.3030   11.4810   26.1290 C.3   147  TYR147      0.1605
     35  C         72.8010   11.7420   27.5540 C.2   147  TYR147      0.2264
     36  O         73.8010   12.4270   27.7270 O.2   147  TYR147     -0.2867
     37  CB        73.3610   10.7300   25.3340 C.3   147  TYR147      0.0534
     38  CG        73.6660    9.3660   25.8770 C.ar  147  TYR147     -0.0201
     39  CD1       74.8650    9.1260   26.5380 C.ar  147  TYR147     -0.0009
     40  CD2       72.7810    8.2990   25.6870 C.ar  147  TYR147     -0.0009
     41  CE1       75.1900    7.8670   26.9910 C.ar  147  TYR147      0.0417
     42  CE2       73.0920    7.0210   26.1380 C.ar  147  TYR147      0.0417
     43  CZ        74.3050    6.8160   26.7860 C.ar  147  TYR147      0.1957
     44  OH        74.6690    5.5770   27.2180 O.3   147  TYR147     -0.2866
     45  N         73.1980   10.1810   31.8780 N.3   149  ASN149     -0.1240
     46  CA        72.9950    9.2670   32.9950 C.3   149  ASN149      0.1653
     47  C         72.0540    9.9100   33.9870 C.2   149  ASN149      0.2266
     48  O         71.2060    9.2330   34.5740 O.2   149  ASN149     -0.2867
     49  CB        74.3050    8.9690   33.7260 C.3   149  ASN149      0.1155
     50  CG        75.2840    8.1710   32.8880 C.2   149  ASN149      0.2627
     51  OD1       74.8990    7.4170   31.9920 O.2   149  ASN149     -0.2716
     52  ND2       76.5620    8.3300   33.1820 N.am  149  ASN149     -0.0877
     53  N         74.2760    2.4690   34.8130 N.3   218  TYR218     -0.1241
     54  CA        75.3800    1.6980   34.2320 C.3   218  TYR218      0.1605
     55  C         75.9790    0.6010   35.1350 C.2   218  TYR218      0.2264
     56  O         77.0660    0.0900   34.8480 O.2   218  TYR218     -0.2867
     57  CB        76.4990    2.6690   33.7640 C.3   218  TYR218      0.0534
     58  CG        77.0590    3.5920   34.8490 C.ar  218  TYR218     -0.0201
     59  CD1       77.9910    3.1350   35.7760 C.ar  218  TYR218     -0.0009
     60  CD2       76.6040    4.8990   34.9810 C.ar  218  TYR218     -0.0009
     61  CE1       78.4470    3.9570   36.8090 C.ar  218  TYR218      0.0417
     62  CE2       77.0530    5.7260   36.0090 C.ar  218  TYR218      0.0417
     63  CZ        77.9670    5.2460   36.9190 C.ar  218  TYR218      0.1957
     64  OH        78.3710    6.0480   37.9590 O.3   218  TYR218     -0.2866
     65  N         77.2400   11.8080   21.8420 N.3   290  LEU290     -0.1245
     66  CA        77.1240   12.6450   23.0280 C.3   290  LEU290      0.1561
     67  C         76.6460   14.0700   22.7950 C.2   290  LEU290      0.2260
     68  O         76.4460   14.7930   23.7690 O.2   290  LEU290     -0.2867
     69  CB        78.4610   12.7170   23.7570 C.3   290  LEU290      0.0270
     70  CG        78.9980   11.3600   24.1730 C.3   290  LEU290      0.0019
     71  CD1       80.1630   11.5450   25.1440 C.3   290  LEU290      0.0001
     72  CD2       77.8620   10.5460   24.8130 C.3   290  LEU290      0.0001
     73  N         79.9450    1.2320   28.0090 N.3   315  ALA315     -0.1231
     74  CA        81.3460    1.3140   28.3330 C.3   315  ALA315      0.1694
     75  C         81.5290    1.8070   29.7450 C.2   315  ALA315      0.2592
     76  O         80.6630    2.4840   30.3010 O.2   315  ALA315     -0.2718
     77  CB        82.0490    2.2410   27.3670 C.3   315  ALA315      0.0304
     78  N         82.6470    1.3940   30.3330 N.am  316  THR316     -0.1953
     79  CA        83.0590    1.8300   31.6490 C.3   316  THR316      0.1897
     80  C         84.5660    2.0520   31.4550 C.2   316  THR316      0.2313
     81  O         85.0900    1.8770   30.3270 O.2   316  THR316     -0.2863
     82  CB        82.7880    0.7790   32.7530 C.3   316  THR316      0.1794
     83  OG1       83.4040   -0.4740   32.4160 O.3   316  THR316     -0.2208
     84  CG2       81.2990    0.5980   32.9360 C.3   316  THR316      0.0378
@<TRIPOS>BOND
     1    65    66    1
     2    67    66    1
     3    67    68    2
     4    66    69    1
     5    69    70    1
     6    70    72    1
     7    70    71    1
     8    37    38    1
     9    37    34    1
    10    33    34    1
    11    40    38   ar
    12    40    42   ar
    13    38    39   ar
    14    34    35    1
    15    42    43   ar
    16    39    41   ar
    17    43    41   ar
    18    43    44    1
    19    77    74    1
    20    35    36    2
    21    73    74    1
    22    74    75    1
    23     4     3    2
    24     5     6    1
    25     5     2    1
    26     3     2    1
    27    13    14    1
    28    13    12    1
    29    22    21    1
    30    23    21    1
    31    11    12    1
    32    11     8    1
    33     2     1    1
    34    75    76    2
    35    75    78   am
    36     9    10    2
    37     9     8    1
    38    14    15    1
    39    20    21    1
    40    20    17    1
    41    81    80    2
    42    78    79    1
    43     8     7    1
    44    17    16    1
    45    17    18    1
    46    80    79    1
    47    79    82    1
    48    45    46    1
    49    51    50    2
    50    18    19    2
    51    18    24   am
    52    83    82    1
    53    82    84    1
    54    50    52   am
    55    50    49    1
    56    46    49    1
    57    46    47    1
    58    31    30    2
    59    24    25    1
    60    57    54    1
    61    57    58    1
    62    47    48    2
    63    54    53    1
    64    54    55    1
    65    30    29    1
    66    30    32   am
    67    29    28    1
    68    25    28    1
    69    25    26    1
    70    56    55    2
    71    58    60   ar
    72    58    59   ar
    73    60    62   ar
    74    27    26    2
    75    59    61   ar
    76    62    63   ar
    77    61    63   ar
    78    63    64    1
