@<TRIPOS>MOLECULE
tmp/1c3qB01.pdb
 84 78 0 0 0
SMALL
GASTEIGER

@<TRIPOS>ATOM
      1  N         31.1840  -10.1580   18.1850 N.3    37  ASN37      -0.1240
      2  CA        30.5510   -9.8160   19.4550 C.3    37  ASN37       0.1653
      3  C         31.1660   -8.5780   20.1330 C.2    37  ASN37       0.2266
      4  O         32.3560   -8.2940   19.9600 O.2    37  ASN37      -0.2867
      5  CB        30.5910  -11.0530   20.3740 C.3    37  ASN37       0.1155
      6  CG        31.9570  -11.2970   20.9790 C.2    37  ASN37       0.2627
      7  OD1       32.3740  -10.5740   21.8840 O.2    37  ASN37      -0.2716
      8  ND2       32.6640  -12.3140   20.4860 N.am   37  ASN37      -0.0877
      9  N         32.0440   -8.0960   23.0880 N.3    39  VAL39      -0.1231
     10  CA        32.9590   -8.3560   24.1880 C.3    39  VAL39       0.1692
     11  C         34.3960   -8.3090   23.6690 C.2    39  VAL39       0.2591
     12  O         35.3250   -8.0200   24.4270 O.2    39  VAL39      -0.2718
     13  CB        32.6950   -9.7460   24.8150 C.3    39  VAL39       0.0266
     14  CG1       33.5850   -9.9530   26.0530 C.3    39  VAL39       0.0020
     15  CG2       31.2230   -9.8700   25.1730 C.3    39  VAL39       0.0020
     16  N         34.5710   -8.5360   22.3630 N.am   40  VAL40      -0.1980
     17  CA        35.9120   -8.5830   21.7690 C.3    40  VAL40       0.1595
     18  C         36.2180   -7.6260   20.6040 C.2    40  VAL40       0.2287
     19  O         37.2910   -7.7150   20.0010 O.2    40  VAL40      -0.2864
     20  CB        36.2020  -10.0220   21.2820 C.3    40  VAL40       0.0276
     21  CG1       35.8940  -11.0280   22.4040 C.3    40  VAL40       0.0022
     22  CG2       35.3480  -10.3360   20.0520 C.3    40  VAL40       0.0022
     23  N         29.7050  -14.7210   18.9240 N.3    79  GLY79      -0.1210
     24  CA        29.8600  -14.5520   20.3640 C.3    79  GLY79       0.1956
     25  C         28.6900  -13.9660   21.1410 C.2    79  GLY79       0.2612
     26  O         28.3130  -14.4880   22.1970 O.2    79  GLY79      -0.2717
     27  N         28.1300  -12.8610   20.6590 N.am   80  THR80      -0.1952
     28  CA        26.9860  -12.2330   21.3290 C.3    80  THR80       0.1897
     29  C         25.9550  -11.9530   20.2570 C.2    80  THR80       0.2313
     30  O         25.5250  -10.8080   20.0470 O.2    80  THR80      -0.2863
     31  CB        27.3740  -10.9080   22.0210 C.3    80  THR80       0.1794
     32  OG1       27.9740  -10.0190   21.0640 O.3    80  THR80      -0.2208
     33  CG2       28.3520  -11.1790   23.1720 C.3    80  THR80       0.0378
     34  N         31.4720  -19.6450   18.0670 N.3   108  VAL108     -0.1245
     35  CA        31.5460  -19.4430   19.5080 C.3   108  VAL108      0.1561
     36  C         30.2890  -19.8930   20.2450 C.2   108  VAL108      0.2260
     37  O         29.1920  -19.4150   19.9670 O.2   108  VAL108     -0.2867
     38  CB        31.7550  -17.9560   19.8500 C.3   108  VAL108      0.0252
     39  CG1       32.0070  -17.8000   21.3460 C.3   108  VAL108      0.0019
     40  CG2       32.9020  -17.3830   19.0380 C.3   108  VAL108      0.0019
     41  N         22.5050  -20.9830   19.4840 N.3   116  ARG116     -0.1245
     42  CA        23.8530  -20.8660   18.9340 C.3   116  ARG116      0.1563
     43  C         24.2250  -21.9680   17.9570 C.2   116  ARG116      0.2260
     44  O         24.8810  -21.7150   16.9520 O.2   116  ARG116     -0.2867
     45  CB        24.8780  -20.8080   20.0680 C.3   116  ARG116      0.0307
     46  CG        24.6330  -19.6260   20.9840 C.3   116  ARG116      0.0489
     47  CD        25.8110  -19.3060   21.8780 C.3   116  ARG116      0.2205
     48  NE        25.5640  -18.0510   22.5760 N.pl3 116  ARG116     -0.0865
     49  CZ        26.4860  -17.1220   22.7910 C.cat 116  ARG116      0.5346
     50  NH1       27.7270  -17.3080   22.3600 N.pl3 116  ARG116      0.1354
     51  NH2       26.1600  -16.0050   23.4250 N.pl3 116  ARG116      0.1354
     52  N         42.7390  -14.3860   28.5550 N.3   205  VAL205     -0.1231
     53  CA        42.4000  -13.1590   27.8410 C.3   205  VAL205      0.1692
     54  C         41.1370  -13.3630   27.0050 C.2   205  VAL205      0.2593
     55  O         41.1220  -14.1890   26.0890 O.2   205  VAL205     -0.2718
     56  CB        43.5410  -12.7210   26.8980 C.3   205  VAL205      0.0266
     57  CG1       43.1970  -11.3840   26.2540 C.3   205  VAL205      0.0020
     58  CG2       44.8520  -12.6190   27.6740 C.3   205  VAL205      0.0020
     59  N         40.0840  -12.6110   27.3150 N.am  206  THR206     -0.1939
     60  CA        38.8340  -12.7360   26.5740 C.3   206  THR206      0.2028
     61  C         39.0770  -12.3560   25.1100 C.2   206  THR206      0.2643
     62  O         39.8260  -11.4280   24.8170 O.2   206  THR206     -0.2714
     63  CB        37.7150  -11.8240   27.1670 C.3   206  THR206      0.1808
     64  OG1       36.4520  -12.1900   26.5990 O.3   206  THR206     -0.2208
     65  CG2       37.9720  -10.3620   26.8410 C.3   206  THR206      0.0379
     66  N         38.4520  -13.0900   24.1970 N.am  207  GLY207     -0.1939
     67  CA        38.6330  -12.8130   22.7860 C.3   207  GLY207      0.2014
     68  C         39.9580  -13.3040   22.2130 C.2   207  GLY207      0.2639
     69  O         40.3040  -12.9510   21.0950 O.2   207  GLY207     -0.2714
     70  N         40.7110  -14.0980   22.9660 N.am  208  ALA208     -0.1963
     71  CA        41.9770  -14.6240   22.4530 C.3   208  ALA208      0.1728
     72  C         41.6920  -15.5040   21.2290 C.2   208  ALA208      0.2617
     73  O         42.4520  -15.5010   20.2470 O.2   208  ALA208     -0.2715
     74  CB        42.6910  -15.4370   23.5340 C.3   208  ALA208      0.0334
     75  N         40.5940  -16.2550   21.2870 N.am  209  GLY209     -0.1940
     76  CA        40.2310  -17.1070   20.1640 C.3   209  GLY209      0.2014
     77  C         39.5560  -16.3100   19.0530 C.2   209  GLY209      0.2639
     78  O         39.7220  -16.6000   17.8670 O.2   209  GLY209     -0.2714
     79  N         38.7950  -15.2900   19.4390 N.am  210  CYS210     -0.1967
     80  CA        38.0810  -14.4580   18.4800 C.3   210  CYS210      0.1712
     81  C         39.0820  -13.7110   17.5910 C.2   210  CYS210      0.2296
     82  O         38.9230  -13.6490   16.3660 O.2   210  CYS210     -0.2864
     83  CB        37.1700  -13.4910   19.2380 C.3   210  CYS210      0.0983
     84  SG        36.0260  -14.3660   20.3720 S.3   210  CYS210     -0.0798
@<TRIPOS>BOND
     1    82    81    2
     2    44    43    2
     3    81    80    1
     4    78    77    2
     5    43    42    1
     6    34    35    1
     7     1     2    1
     8    80    83    1
     9    80    79    1
    10    23    24    1
    11    42    41    1
    12    42    45    1
    13    40    38    1
    14    77    79   am
    15    77    76    1
    16    83    84    1
    17     2     3    1
    18     2     5    1
    19    35    38    1
    20    35    36    1
    21    38    39    1
    22     4     3    2
    23    37    36    2
    24    19    18    2
    25    30    29    2
    26    22    20    1
    27    45    46    1
    28    76    75    1
    29    73    72    2
    30    29    28    1
    31    24    25    1
    32     5     6    1
    33     8     6   am
    34    18    17    1
    35    27    25   am
    36    27    28    1
    37     6     7    2
    38    46    47    1
    39    32    31    1
    40    69    68    2
    41    25    26    2
    42    72    75   am
    43    72    71    1
    44    20    17    1
    45    20    21    1
    46    28    31    1
    47    17    16    1
    48    47    48    1
    49    31    33    1
    50    68    67    1
    51    68    70   am
    52    50    49    1
    53    16    11   am
    54    71    70    1
    55    71    74    1
    56    48    49    2
    57    67    66    1
    58    49    51    1
    59     9    10    1
    60    11    10    1
    61    11    12    2
    62    10    13    1
    63    66    61   am
    64    13    15    1
    65    13    14    1
    66    62    61    2
    67    61    60    1
    68    55    54    2
    69    57    56    1
    70    60    63    1
    71    60    59    1
    72    64    63    1
    73    65    63    1
    74    56    58    1
    75    56    53    1
    76    54    59   am
    77    54    53    1
    78    53    52    1
