@<TRIPOS>MOLECULE
tmp/1c3rA00.pdb
 153 151 0 0 0
SMALL
GASTEIGER

@<TRIPOS>ATOM
      1  N         55.5150   -7.3380  104.3670 N.3    19  ASN19      -0.1225
      2  CA        55.9250   -6.1300  103.6520 C.3    19  ASN19       0.1785
      3  C         55.1670   -4.8620  104.0230 C.2    19  ASN19       0.2597
      4  O         55.4810   -3.7780  103.5330 O.2    19  ASN19      -0.2718
      5  CB        55.8290   -6.3590  102.1430 C.3    19  ASN19       0.1169
      6  CG        56.7290   -7.4870  101.6700 C.2    19  ASN19       0.2627
      7  OD1       57.9480   -7.4370  101.8430 O.2    19  ASN19      -0.2716
      8  ND2       56.1300   -8.5130  101.0740 N.am   19  ASN19      -0.0877
      9  N         54.1820   -4.9970  104.8990 N.am   20  HIS20      -0.1962
     10  CA        53.3740   -3.8630  105.3210 C.3    20  HIS20       0.1772
     11  C         54.1940   -2.8790  106.1550 C.2    20  HIS20       0.2462
     12  O         55.0300   -3.2790  106.9630 O.2    20  HIS20      -0.2730
     13  CB        52.1980   -4.3550  106.1620 C.3    20  HIS20       0.0785
     14  CG        51.1180   -3.3390  106.3480 C.ar   20  HIS20       0.0821
     15  ND1       49.9930   -3.2980  105.5520 N.ar   20  HIS20      -0.2267
     16  CD2       50.9990   -2.3140  107.2230 C.ar   20  HIS20       0.1154
     17  CE1       49.2260   -2.2930  105.9330 C.ar   20  HIS20       0.1986
     18  NE2       49.8140   -1.6800  106.9450 N.ar   20  HIS20      -0.2212
     19  N         53.9650   -1.5720  105.9690 N.am   21  PRO21      -0.2727
     20  CA        54.7020   -0.5670  106.7390 C.3    21  PRO21       0.1402
     21  C         54.6240   -0.8220  108.2530 C.2    21  PRO21       0.2269
     22  O         55.5750   -0.5380  108.9810 O.2    21  PRO21      -0.2865
     23  CB        54.0120    0.7320  106.3260 C.3    21  PRO21       0.0296
     24  CG        53.6700    0.4340  104.8750 C.3    21  PRO21       0.0237
     25  CD        53.0270   -0.9120  105.0430 C.3    21  PRO21       0.0939
     26  N         46.2210   -5.1550  100.3670 N.3    90  TYR90      -0.1227
     27  CA        47.5390   -4.8500  100.9180 C.3    90  TYR90       0.1736
     28  C         47.4520   -3.7770  101.9980 C.2    90  TYR90       0.2595
     29  O         48.3140   -3.6890  102.8690 O.2    90  TYR90      -0.2718
     30  CB        48.4770   -4.3650   99.8050 C.3    90  TYR90       0.0548
     31  CG        48.0660   -3.0390   99.1940 C.ar   90  TYR90      -0.0200
     32  CD1       48.3740   -1.8290   99.8220 C.ar   90  TYR90      -0.0009
     33  CD2       47.3410   -2.9970   98.0020 C.ar   90  TYR90      -0.0009
     34  CE1       47.9700   -0.6090   99.2750 C.ar   90  TYR90       0.0417
     35  CE2       46.9310   -1.7860   97.4470 C.ar   90  TYR90       0.0417
     36  CZ        47.2500   -0.5970   98.0860 C.ar   90  TYR90       0.1957
     37  OH        46.8610    0.5930   97.5160 O.3    90  TYR90      -0.2866
     38  N         46.4020   -2.9710  101.9380 N.am   91  GLU91      -0.1979
     39  CA        46.2320   -1.8790  102.8820 C.3    91  GLU91       0.1602
     40  C         45.7700   -2.3430  104.2590 C.2    91  GLU91       0.2287
     41  O         46.3890   -2.0150  105.2680 O.2    91  GLU91      -0.2864
     42  CB        45.2340   -0.8810  102.3100 C.3    91  GLU91       0.0415
     43  CG        45.2320    0.4710  102.9820 C.3    91  GLU91       0.1163
     44  CD        44.1780    1.3950  102.3960 C.2    91  GLU91       0.3649
     45  OE1       42.9990    1.2930  102.7940 O.co2  91  GLU91      -0.2457
     46  OE2       44.5270    2.2090  101.5160 O.co2  91  GLU91      -0.2457
     47  N         42.9260    6.7660  113.2940 N.3   130  HIS130     -0.1226
     48  CA        41.9330    7.6870  112.7750 C.3   130  HIS130      0.1752
     49  C         41.2800    7.5130  111.4160 C.2   130  HIS130      0.2596
     50  O         40.4530    8.3410  111.0510 O.2   130  HIS130     -0.2718
     51  CB        42.4740    9.1250  112.8910 C.3   130  HIS130      0.0759
     52  CG        43.6990    9.3910  112.0690 C.ar  130  HIS130      0.0818
     53  ND1       44.2460   10.6490  111.9170 N.ar  130  HIS130     -0.2268
     54  CD2       44.4980    8.5490  111.3730 C.ar  130  HIS130      0.1154
     55  CE1       45.3280   10.5670  111.1630 C.ar  130  HIS130      0.1986
     56  NE2       45.5030    9.3020  110.8200 N.ar  130  HIS130     -0.2212
     57  N         41.6000    6.4490  110.6820 N.am  131  HIS131     -0.1975
     58  CA        41.0060    6.2570  109.3540 C.3   131  HIS131      0.1656
     59  C         39.7520    5.3860  109.2080 C.2   131  HIS131      0.2291
     60  O         38.9470    5.6150  108.3040 O.2   131  HIS131     -0.2864
     61  CB        42.0600    5.7150  108.3880 C.3   131  HIS131      0.0771
     62  CG        43.1480    6.6890  108.0720 C.ar  131  HIS131      0.0820
     63  ND1       42.8960    7.9440  107.5560 N.ar  131  HIS131     -0.2267
     64  CD2       44.4960    6.5740  108.1440 C.ar  131  HIS131      0.1154
     65  CE1       44.0440    8.5580  107.3230 C.ar  131  HIS131      0.1986
     66  NE2       45.0280    7.7480  107.6680 N.ar  131  HIS131     -0.2212
     67  N         42.9440    2.9590  105.3540 N.3   139  GLY139     -0.1210
     68  CA        44.2770    3.4280  105.7020 C.3   139  GLY139      0.1956
     69  C         45.0000    2.6960  106.8160 C.2   139  GLY139      0.2611
     70  O         45.5600    3.3390  107.7050 O.2   139  GLY139     -0.2717
     71  N         45.0060    1.3650  106.7680 N.am  140  PHE140     -0.1976
     72  CA        45.6790    0.5380  107.7830 C.3   140  PHE140      0.1639
     73  C         44.8460    0.3870  109.0560 C.2   140  PHE140      0.2290
     74  O         45.1940   -0.3990  109.9410 O.2   140  PHE140     -0.2864
     75  CB        47.0310    1.1460  108.1970 C.3   140  PHE140      0.0560
     76  CG        47.9970    1.3660  107.0620 C.ar  140  PHE140     -0.0200
     77  CD1       49.1450    2.1250  107.2690 C.ar  140  PHE140     -0.0042
     78  CD2       47.7810    0.8110  105.8020 C.ar  140  PHE140     -0.0042
     79  CE1       50.0660    2.3310  106.2430 C.ar  140  PHE140     -0.0003
     80  CE2       48.6940    1.0080  104.7700 C.ar  140  PHE140     -0.0003
     81  CZ        49.8400    1.7710  104.9910 C.ar  140  PHE140     -0.0000
     82  N         48.7360   13.9770  113.4880 N.3   167  ASP167     -0.1239
     83  CA        49.2440   12.9750  112.5550 C.3   167  ASP167      0.1674
     84  C         49.4230   13.6860  111.2090 C.2   167  ASP167      0.2266
     85  O         48.6290   14.5590  110.8650 O.2   167  ASP167     -0.2867
     86  CB        48.2090   11.8520  112.4100 C.3   167  ASP167      0.1410
     87  CG        48.7220   10.6690  111.6080 C.2   167  ASP167      0.3668
     88  OD1       49.0850    9.6440  112.2270 O.co2 167  ASP167     -0.2456
     89  OD2       48.7770   10.7500  110.3640 O.co2 167  ASP167     -0.2456
     90  N         48.6730   12.7460  108.4060 N.3   169  HIS169     -0.1241
     91  CA        47.5920   12.4450  107.4680 C.3   169  HIS169      0.1621
     92  C         46.2430   12.8670  108.0450 C.2   169  HIS169      0.2264
     93  O         46.0440   12.8490  109.2550 O.2   169  HIS169     -0.2867
     94  CB        47.5500   10.9500  107.1310 C.3   169  HIS169      0.0745
     95  CG        48.8300   10.4200  106.5700 C.ar  169  HIS169      0.0817
     96  ND1       49.8420    9.9820  107.3850 N.ar  169  HIS169     -0.2268
     97  CD2       49.2240   10.3290  105.2730 C.ar  169  HIS169      0.1154
     98  CE1       50.8250    9.6340  106.5770 C.ar  169  HIS169      0.1986
     99  NE2       50.5020    9.8280  105.2850 N.ar  169  HIS169     -0.2212
    100  N         47.7950   10.8490  101.1020 N.3   197  PHE197     -0.1241
    101  CA        46.6630   10.0720  101.5800 C.3   197  PHE197      0.1605
    102  C         46.1210   10.8140  102.8020 C.2   197  PHE197      0.2264
    103  O         46.8920   11.3470  103.5960 O.2   197  PHE197     -0.2867
    104  CB        47.1300    8.6910  102.0360 C.3   197  PHE197      0.0534
    105  CG        46.0090    7.7660  102.3990 C.ar  197  PHE197     -0.0203
    106  CD1       45.4960    6.8790  101.4630 C.ar  197  PHE197     -0.0042
    107  CD2       45.4260    7.8220  103.6570 C.ar  197  PHE197     -0.0042
    108  CE1       44.4150    6.0570  101.7730 C.ar  197  PHE197     -0.0003
    109  CE2       44.3400    7.0040  103.9700 C.ar  197  PHE197     -0.0003
    110  CZ        43.8370    6.1210  103.0290 C.ar  197  PHE197     -0.0000
    111  N         43.4410   11.1560   99.7340 N.3   199  PHE199     -0.1241
    112  CA        43.4180   12.1790   98.7180 C.3   199  PHE199      0.1605
    113  C         42.0420   12.7950   98.5180 C.2   199  PHE199      0.2264
    114  O         41.9350   13.8890   97.9860 O.2   199  PHE199     -0.2867
    115  CB        43.9270   11.5790   97.4110 C.3   199  PHE199      0.0534
    116  CG        45.2260   10.8330   97.5610 C.ar  199  PHE199     -0.0203
    117  CD1       45.2390    9.5100   97.9950 C.ar  199  PHE199     -0.0042
    118  CD2       46.4390   11.4610   97.3020 C.ar  199  PHE199     -0.0042
    119  CE1       46.4440    8.8200   98.1680 C.ar  199  PHE199     -0.0003
    120  CE2       47.6510   10.7820   97.4730 C.ar  199  PHE199     -0.0003
    121  CZ        47.6530    9.4580   97.9060 C.ar  199  PHE199     -0.0000
    122  N         54.4930   10.1770  112.3790 N.3   257  ASP257     -0.1239
    123  CA        54.8630   10.2290  110.9610 C.3   257  ASP257      0.1674
    124  C         55.2220   11.5960  110.3640 C.2   257  ASP257      0.2266
    125  O         55.7560   11.6610  109.2540 O.2   257  ASP257     -0.2867
    126  CB        53.8490    9.4960  110.0560 C.3   257  ASP257      0.1410
    127  CG        52.4150    9.9440  110.2520 C.2   257  ASP257      0.3668
    128  OD1       52.1730   11.0700  110.7420 O.co2 257  ASP257     -0.2456
    129  OD2       51.5130    9.1680  109.8690 O.co2 257  ASP257     -0.2456
    130  N         56.6410    8.0590  105.1720 N.3   264  LEU264     -0.1245
    131  CA        55.2440    8.2090  104.7920 C.3   264  LEU264      0.1561
    132  C         54.6690    9.6170  104.9210 C.2   264  LEU264      0.2260
    133  O         53.4570    9.7960  104.9790 O.2   264  LEU264     -0.2867
    134  CB        54.3600    7.1890  105.5270 C.3   264  LEU264      0.0270
    135  CG        54.6630    5.7240  105.1680 C.3   264  LEU264      0.0019
    136  CD1       53.4640    4.8360  105.5030 C.3   264  LEU264      0.0001
    137  CD2       54.9310    5.6200  103.6820 C.3   264  LEU264      0.0001
    138  N         49.8250    7.2030  113.4990 N.3   294  GLY294     -0.1225
    139  CA        50.7210    6.7240  112.4580 C.3   294  GLY294      0.1811
    140  C         52.1850    7.0100  112.7400 C.2   294  GLY294      0.2280
    141  O         52.5410    8.0940  113.1960 O.2   294  GLY294     -0.2866
    142  N         56.0050    5.0340  111.1850 N.3   296  TYR296     -0.1241
    143  CA        56.5980    3.8520  110.5770 C.3   296  TYR296      0.1605
    144  C         58.1040    3.6940  110.6740 C.2   296  TYR296      0.2264
    145  O         58.6650    2.7240  110.1540 O.2   296  TYR296     -0.2867
    146  CB        56.1370    3.7800  109.1250 C.3   296  TYR296      0.0534
    147  CG        54.6600    4.0840  109.0350 C.ar  296  TYR296     -0.0201
    148  CD1       54.2030    5.4020  109.0170 C.ar  296  TYR296     -0.0009
    149  CD2       53.7130    3.0620  109.1160 C.ar  296  TYR296     -0.0009
    150  CE1       52.8420    5.6950  109.0890 C.ar  296  TYR296      0.0417
    151  CE2       52.3520    3.3460  109.1900 C.ar  296  TYR296      0.0417
    152  CZ        51.9270    4.6660  109.1810 C.ar  296  TYR296      0.1957
    153  OH        50.5880    4.9720  109.3050 O.3   296  TYR296     -0.2866
@<TRIPOS>BOND
     1   118   120   ar
     2   118   116   ar
     3   115   116    1
     4   115   112    1
     5    35    33   ar
     6    35    36   ar
     7   120   121   ar
     8    37    36    1
     9   116   117   ar
    10   121   119   ar
    11   114   113    2
    12   117   119   ar
    13    33    31   ar
    14    36    34   ar
    15   113   112    1
    16   112   111    1
    17    31    30    1
    18    31    32   ar
    19    34    32   ar
    20    30    27    1
    21    26    27    1
    22    27    28    1
    23     8     6   am
    24   100   101    1
    25   106   108   ar
    26   106   105   ar
    27    46    44   ar
    28   101   104    1
    29   101   102    1
    30     6     7    2
    31     6     5    1
    32   108   110   ar
    33    38    28   am
    34    38    39    1
    35    28    29    2
    36   104   105    1
    37     5     2    1
    38    42    39    1
    39    42    43    1
    40    44    45   ar
    41    44    43    1
    42   105   107   ar
    43   102   103    2
    44    39    40    1
    45   110   109   ar
    46     4     3    2
    47     2     3    1
    48     2     1    1
    49   107   109   ar
    50   137   135    1
    51     3     9   am
    52    40    41    2
    53    80    81   ar
    54    80    78   ar
    55   131   132    1
    56   131   130    1
    57   131   134    1
    58    24    25    1
    59    24    23    1
    60     9    10    1
    61   132   133    2
    62    81    79   ar
    63    25    19    1
    64   135   136    1
    65   135   134    1
    66    97    99   ar
    67    97    95   ar
    68    99    98   ar
    69    10    11    1
    70    10    13    1
    71    67    68    1
    72    15    17   ar
    73    15    14   ar
    74    68    69    1
    75    78    76   ar
    76    17    18   ar
    77    19    11   am
    78    19    20    1
    79    11    12    2
    80    13    14    1
    81    79    77   ar
    82    23    20    1
    83    14    16   ar
    84    95    94    1
    85    95    96   ar
    86    98    96   ar
    87    20    21    1
    88    71    69   am
    89    71    72    1
    90    69    70    2
    91    18    16   ar
    92    76    77   ar
    93    76    75    1
    94    94    91    1
    95    65    63   ar
    96    65    66   ar
    97    91    92    1
    98    91    90    1
    99    63    62   ar
   100    66    64   ar
   101    72    75    1
   102    72    73    1
   103    92    93    2
   104    62    64   ar
   105    62    61    1
   106    21    22    2
   107    60    59    2
   108    61    58    1
   109   148   147   ar
   110   148   150   ar
   111   147   149   ar
   112   147   146    1
   113    73    74    2
   114   150   152   ar
   115   149   151   ar
   116   146   143    1
   117   152   151   ar
   118   152   153    1
   119    59    58    1
   120   125   124    2
   121    58    57    1
   122   129   127   ar
   123   126   127    1
   124   126   123    1
   125   145   144    2
   126   127   128   ar
   127    89    87   ar
   128   124   123    1
   129   143   144    1
   130   143   142    1
   131    57    49   am
   132    56    55   ar
   133    56    54   ar
   134    85    84    2
   135   123   122    1
   136    50    49    2
   137    55    53   ar
   138    84    83    1
   139    54    52   ar
   140    49    48    1
   141    87    88   ar
   142    87    86    1
   143    53    52   ar
   144    52    51    1
   145    86    83    1
   146   139   140    1
   147   139   138    1
   148    83    82    1
   149   140   141    2
   150    48    51    1
   151    48    47    1
