@<TRIPOS>MOLECULE
tmp/1c3sA00.pdb
 172 169 0 0 0
SMALL
GASTEIGER

@<TRIPOS>ATOM
      1  N         26.1460   43.3140   38.2030 N.3    19  ASN19      -0.1240
      2  CA        24.8310   42.7500   38.4820 C.3    19  ASN19       0.1653
      3  C         24.7890   41.7650   39.6490 C.2    19  ASN19       0.2266
      4  O         23.7640   41.1270   39.8770 O.2    19  ASN19      -0.2867
      5  CB        24.3360   42.0610   37.2090 C.3    19  ASN19       0.1155
      6  CG        25.3890   41.1320   36.6130 C.2    19  ASN19       0.2627
      7  OD1       25.6770   40.0640   37.1540 O.2    19  ASN19      -0.2716
      8  ND2       25.9980   41.5620   35.5090 N.am   19  ASN19      -0.0877
      9  N         25.2290   40.7780   43.8530 N.3    21  PRO21      -0.2116
     10  CA        25.2240   41.3610   45.1990 C.3    21  PRO21       0.1372
     11  C         26.6380   41.6370   45.7510 C.2    21  PRO21       0.2244
     12  O         26.8670   42.6530   46.4170 O.2    21  PRO21      -0.2868
     13  CB        24.4730   40.3060   46.0120 C.3    21  PRO21       0.0268
     14  CG        23.4640   39.8100   45.0030 C.3    21  PRO21       0.0207
     15  CD        24.3710   39.5790   43.8140 C.3    21  PRO21       0.0892
     16  N         25.1120   32.8730   36.7680 N.3    90  TYR90      -0.1227
     17  CA        24.9770   34.2130   37.2900 C.3    90  TYR90       0.1736
     18  C         25.3840   34.2020   38.7530 C.2    90  TYR90       0.2595
     19  O         26.0750   35.1050   39.2330 O.2    90  TYR90      -0.2718
     20  CB        23.5150   34.6340   37.1950 C.3    90  TYR90       0.0548
     21  CG        23.1690   35.8250   38.0470 C.ar   90  TYR90      -0.0200
     22  CD1       23.5360   37.1080   37.6700 C.ar   90  TYR90      -0.0009
     23  CD2       22.5050   35.6630   39.2540 C.ar   90  TYR90      -0.0009
     24  CE1       23.2500   38.2030   38.4750 C.ar   90  TYR90       0.0417
     25  CE2       22.2150   36.7540   40.0680 C.ar   90  TYR90       0.0417
     26  CZ        22.5890   38.0160   39.6680 C.ar   90  TYR90       0.1957
     27  OH        22.2830   39.0940   40.4500 O.3    90  TYR90      -0.2866
     28  N         24.9250   33.1580   39.4380 N.am   91  GLU91      -0.1979
     29  CA        25.1430   32.9410   40.8650 C.3    91  GLU91       0.1602
     30  C         26.6190   32.9020   41.2480 C.2    91  GLU91       0.2287
     31  O         27.0730   33.6230   42.1400 O.2    91  GLU91      -0.2864
     32  CB        24.4630   31.6260   41.2680 C.3    91  GLU91       0.0415
     33  CG        24.1740   31.4950   42.7470 C.3    91  GLU91       0.1163
     34  CD        23.3110   30.2780   43.0870 C.2    91  GLU91       0.3649
     35  OE1       23.8570   29.1480   43.1520 O.co2  91  GLU91      -0.2457
     36  OE2       22.0760   30.4660   43.2750 O.co2  91  GLU91      -0.2457
     37  N         30.1840   29.4520   53.6590 N.3   130  HIS130     -0.1226
     38  CA        29.6180   28.1710   54.0620 C.3   130  HIS130      0.1752
     39  C         28.7630   27.3320   53.1410 C.2   130  HIS130      0.2596
     40  O         28.3300   26.2620   53.5410 O.2   130  HIS130     -0.2718
     41  CB        28.8320   28.4210   55.3420 C.3   130  HIS130      0.0759
     42  CG        27.6790   29.3600   55.1610 C.ar  130  HIS130      0.0818
     43  ND1       26.9520   29.8540   56.2190 N.ar  130  HIS130     -0.2268
     44  CD2       27.0910   29.8460   54.0430 C.ar  130  HIS130      0.1154
     45  CE1       25.9680   30.6070   55.7580 C.ar  130  HIS130      0.1986
     46  NE2       26.0310   30.6170   54.4410 N.ar  130  HIS130     -0.2212
     47  N         28.5180   27.7960   51.9230 N.am  131  HIS131     -0.1975
     48  CA        27.6730   27.0580   50.9940 C.3   131  HIS131      0.1656
     49  C         28.3550   26.0510   50.0650 C.2   131  HIS131      0.2291
     50  O         27.7420   25.0530   49.6840 O.2   131  HIS131     -0.2864
     51  CB        26.8790   28.0440   50.1270 C.3   131  HIS131      0.0771
     52  CG        25.8240   28.8150   50.8620 C.ar  131  HIS131      0.0820
     53  ND1       24.8040   28.2000   51.5570 N.ar  131  HIS131     -0.2267
     54  CD2       25.5670   30.1460   50.9200 C.ar  131  HIS131      0.1154
     55  CE1       23.9660   29.1190   52.0050 C.ar  131  HIS131      0.1986
     56  NE2       24.4050   30.3070   51.6320 N.ar  131  HIS131     -0.2212
     57  N         25.7020   29.1450   45.9160 N.3   139  GLY139     -0.1210
     58  CA        25.2940   30.3360   46.6250 C.3   139  GLY139      0.1956
     59  C         26.3830   31.3580   46.7550 C.2   139  GLY139      0.2612
     60  O         26.6630   31.8170   47.8670 O.2   139  GLY139     -0.2717
     61  N         26.9920   31.7110   45.6250 N.am  140  PHE140     -0.1962
     62  CA        28.0750   32.7000   45.5720 C.3   140  PHE140      0.1771
     63  C         29.3960   32.1320   46.0690 C.2   140  PHE140      0.2619
     64  O         30.4380   32.7840   45.9440 O.2   140  PHE140     -0.2715
     65  CB        27.7580   33.9200   46.4300 C.3   140  PHE140      0.0574
     66  CG        26.4530   34.5770   46.1140 C.ar  140  PHE140     -0.0200
     67  CD1       25.9740   35.5920   46.9340 C.ar  140  PHE140     -0.0042
     68  CD2       25.7230   34.2180   44.9850 C.ar  140  PHE140     -0.0042
     69  CE1       24.8000   36.2420   46.6380 C.ar  140  PHE140     -0.0003
     70  CE2       24.5400   34.8590   44.6720 C.ar  140  PHE140     -0.0003
     71  CZ        24.0720   35.8810   45.4990 C.ar  140  PHE140     -0.0000
     72  N         29.3670   30.9300   46.6350 N.am  141  CYS141     -0.1968
     73  CA        30.5940   30.3320   47.1500 C.3   141  CYS141      0.1712
     74  C         31.2270   29.3150   46.2210 C.2   141  CYS141      0.2296
     75  O         30.5330   28.5650   45.5560 O.2   141  CYS141     -0.2864
     76  CB        30.3230   29.6890   48.5090 C.3   141  CYS141      0.0983
     77  SG        29.5240   30.8260   49.6170 S.3   141  CYS141     -0.0798
     78  N         24.6830   33.4570   60.1780 N.3   167  ASP167     -0.1239
     79  CA        24.3820   34.0670   58.9040 C.3   167  ASP167      0.1674
     80  C         22.9150   33.7830   58.6600 C.2   167  ASP167      0.2266
     81  O         22.4190   32.7220   59.0320 O.2   167  ASP167     -0.2867
     82  CB        25.1780   33.3970   57.8070 C.3   167  ASP167      0.1410
     83  CG        25.1400   34.1620   56.5290 C.2   167  ASP167      0.3668
     84  OD1       26.0660   34.9720   56.3300 O.co2 167  ASP167     -0.2456
     85  OD2       24.1860   33.9710   55.7460 O.co2 167  ASP167     -0.2456
     86  N         21.4120   32.7120   56.2620 N.3   169  HIS169     -0.1241
     87  CA        21.1070   31.5180   55.4640 C.3   169  HIS169      0.1621
     88  C         21.8020   30.2650   55.9860 C.2   169  HIS169      0.2264
     89  O         22.9100   30.3320   56.5140 O.2   169  HIS169     -0.2867
     90  CB        21.5390   31.6780   54.0040 C.3   169  HIS169      0.0745
     91  CG        21.1370   32.9680   53.3860 C.ar  169  HIS169      0.0817
     92  ND1       21.6440   34.1620   53.8280 N.ar  169  HIS169     -0.2268
     93  CD2       20.3010   33.1940   52.3480 C.ar  169  HIS169      0.1154
     94  CE1       21.1120   35.0810   53.0540 C.ar  169  HIS169      0.1986
     95  NE2       20.2910   34.5440   52.1400 N.ar  169  HIS169     -0.2212
     96  N         16.9000   30.8520   50.1660 N.3   197  PHE197     -0.1241
     97  CA        18.0620   30.0810   49.7410 C.3   197  PHE197      0.1605
     98  C         18.6890   29.4900   51.0080 C.2   197  PHE197      0.2264
     99  O         18.8020   30.1710   52.0120 O.2   197  PHE197     -0.2867
    100  CB        19.0830   31.0060   49.0690 C.3   197  PHE197      0.0534
    101  CG        20.2500   30.2800   48.4640 C.ar  197  PHE197     -0.0203
    102  CD1       20.1510   29.7130   47.2030 C.ar  197  PHE197     -0.0042
    103  CD2       21.4360   30.1270   49.1750 C.ar  197  PHE197     -0.0042
    104  CE1       21.2070   29.0030   46.6450 C.ar  197  PHE197     -0.0003
    105  CE2       22.5120   29.4080   48.6220 C.ar  197  PHE197     -0.0003
    106  CZ        22.3860   28.8490   47.3510 C.ar  197  PHE197     -0.0000
    107  N         16.8110   26.7560   50.1160 N.3   199  PHE199     -0.1241
    108  CA        15.4970   26.1900   49.7630 C.3   199  PHE199      0.1605
    109  C         15.4150   24.6560   49.8630 C.2   199  PHE199      0.2264
    110  O         14.3860   24.0960   50.2510 O.2   199  PHE199     -0.2867
    111  CB        15.0640   26.5670   48.3400 C.3   199  PHE199      0.0534
    112  CG        14.8630   28.0350   48.1220 C.ar  199  PHE199     -0.0203
    113  CD1       15.8060   28.7810   47.4390 C.ar  199  PHE199     -0.0042
    114  CD2       13.7350   28.6710   48.6080 C.ar  199  PHE199     -0.0042
    115  CE1       15.6310   30.1250   47.2460 C.ar  199  PHE199     -0.0003
    116  CE2       13.5520   30.0350   48.4180 C.ar  199  PHE199     -0.0003
    117  CZ        14.4990   30.7600   47.7380 C.ar  199  PHE199     -0.0000
    118  N         24.1520   39.6650   57.1540 N.3   257  ASP257     -0.1239
    119  CA        22.9350   39.7530   56.3790 C.3   257  ASP257      0.1674
    120  C         21.6490   39.5740   57.1780 C.2   257  ASP257      0.2266
    121  O         20.5710   39.8230   56.6430 O.2   257  ASP257     -0.2867
    122  CB        22.9500   38.8300   55.1490 C.3   257  ASP257      0.1410
    123  CG        23.2110   37.3920   55.4940 C.2   257  ASP257      0.3668
    124  OD1       23.0140   37.0290   56.6750 O.co2 257  ASP257     -0.2456
    125  OD2       23.5850   36.6230   54.5720 O.co2 257  ASP257     -0.2456
    126  N         19.0020   43.4160   52.1220 N.3   263  TYR263     -0.1227
    127  CA        17.9250   42.8880   51.3060 C.3   263  TYR263      0.1736
    128  C         17.8970   41.3850   51.1350 C.2   263  TYR263      0.2595
    129  O         16.8190   40.8160   50.9680 O.2   263  TYR263     -0.2718
    130  CB        17.9130   43.5580   49.9380 C.3   263  TYR263      0.0548
    131  CG        17.6270   45.0380   49.9970 C.ar  263  TYR263     -0.0200
    132  CD1       18.6640   45.9680   49.9830 C.ar  263  TYR263     -0.0009
    133  CD2       16.3160   45.5110   50.1030 C.ar  263  TYR263     -0.0009
    134  CE1       18.4090   47.3350   50.0680 C.ar  263  TYR263      0.0417
    135  CE2       16.0440   46.8770   50.1910 C.ar  263  TYR263      0.0417
    136  CZ        17.0950   47.7860   50.1700 C.ar  263  TYR263      0.1957
    137  OH        16.8380   49.1470   50.2310 O.3   263  TYR263     -0.2866
    138  N         19.0640   40.7400   51.1710 N.am  264  LEU264     -0.1980
    139  CA        19.1220   39.2810   51.0360 C.3   264  LEU264      0.1596
    140  C         18.6930   38.5400   52.2960 C.2   264  LEU264      0.2287
    141  O         19.0240   37.3750   52.4840 O.2   264  LEU264     -0.2864
    142  CB        20.5250   38.8230   50.6170 C.3   264  LEU264      0.0297
    143  CG        20.8080   39.0100   49.1270 C.3   264  LEU264      0.0022
    144  CD1       22.2130   38.5880   48.7710 C.3   264  LEU264      0.0001
    145  CD2       19.8030   38.1660   48.3610 C.3   264  LEU264      0.0001
    146  N         27.9560   36.2650   54.7940 N.3   294  GLY294     -0.1225
    147  CA        27.1390   37.0930   53.9270 C.3   294  GLY294      0.1811
    148  C         26.9020   38.4790   54.4830 C.2   294  GLY294      0.2280
    149  O         26.8700   38.6760   55.6960 O.2   294  GLY294     -0.2866
    150  N         25.3560   42.2800   52.4250 N.3   296  TYR296     -0.1241
    151  CA        25.2820   42.9910   51.1630 C.3   296  TYR296      0.1605
    152  C         25.0420   44.4850   51.2250 C.2   296  TYR296      0.2264
    153  O         25.1060   45.1720   50.2030 O.2   296  TYR296     -0.2867
    154  CB        24.2520   42.2940   50.2960 C.3   296  TYR296      0.0534
    155  CG        24.4960   40.8090   50.3170 C.ar  296  TYR296     -0.0201
    156  CD1       24.0360   40.0160   51.3750 C.ar  296  TYR296     -0.0009
    157  CD2       25.3200   40.2170   49.3580 C.ar  296  TYR296     -0.0009
    158  CE1       24.4000   38.6780   51.4810 C.ar  296  TYR296      0.0417
    159  CE2       25.6880   38.9000   49.4510 C.ar  296  TYR296      0.0417
    160  CZ        25.2420   38.1270   50.5110 C.ar  296  TYR296      0.1957
    161  OH        25.7210   36.8410   50.6150 O.3   296  TYR296     -0.2866
    162  N         17.9660   49.0120   47.2590 N.3   337  PHE337     -0.1241
    163  CA        17.0350   48.1760   46.4970 C.3   337  PHE337      0.1605
    164  C         15.6330   48.7700   46.4940 C.2   337  PHE337      0.2264
    165  O         15.0720   49.0290   45.4340 O.2   337  PHE337     -0.2867
    166  CB        16.9950   46.7590   47.0660 C.3   337  PHE337      0.0534
    167  CG        16.2250   45.7890   46.2210 C.ar  337  PHE337     -0.0203
    168  CD1       16.6660   45.4620   44.9360 C.ar  337  PHE337     -0.0042
    169  CD2       15.0520   45.2080   46.6980 C.ar  337  PHE337     -0.0042
    170  CE1       15.9440   44.5660   44.1380 C.ar  337  PHE337     -0.0003
    171  CE2       14.3230   44.3130   45.9090 C.ar  337  PHE337     -0.0003
    172  CZ        14.7700   43.9910   44.6270 C.ar  337  PHE337     -0.0000
@<TRIPOS>BOND
     1     8     6   am
     2     6     7    2
     3     6     5    1
     4    16    17    1
     5    20    17    1
     6    20    21    1
     7     5     2    1
     8    17    18    1
     9    22    21   ar
    10    22    24   ar
    11    21    23   ar
    12     1     2    1
    13    24    26   ar
    14     2     3    1
    15    18    19    2
    16    18    28   am
    17    23    25   ar
    18    28    29    1
    19     3     4    2
    20    26    25   ar
    21    26    27    1
    22    29    30    1
    23    29    32    1
    24    30    31    2
    25    32    33    1
    26    33    34    1
    27    34    35   ar
    28    34    36   ar
    29    15     9    1
    30    15    14    1
    31     9    10    1
    32   170   172   ar
    33   170   168   ar
    34   172   171   ar
    35    70    68   ar
    36    70    71   ar
    37   168   167   ar
    38    68    66   ar
    39    14    13    1
    40    10    11    1
    41    10    13    1
    42   165   164    2
    43    71    69   ar
    44    75    74    2
    45    62    61    1
    46    62    63    1
    47    62    65    1
    48    61    59   am
    49    11    12    2
    50   171   169   ar
    51    57    58    1
    52    64    63    2
    53    63    72   am
    54    66    65    1
    55    66    67   ar
    56    74    73    1
    57   167   169   ar
    58   167   166    1
    59   164   163    1
    60   163   166    1
    61   163   162    1
    62    58    59    1
    63    72    73    1
    64    69    67   ar
    65   104   102   ar
    66   104   106   ar
    67    59    60    2
    68    73    76    1
    69   102   101   ar
    70   115   113   ar
    71   115   117   ar
    72   106   105   ar
    73   113   112   ar
    74   117   116   ar
    75   112   111    1
    76   112   114   ar
    77   111   108    1
    78   145   143    1
    79   116   114   ar
    80   101   100    1
    81   101   103   ar
    82    76    77    1
    83   105   103   ar
    84   144   143    1
    85   100    97    1
    86   143   142    1
    87   157   159   ar
    88   157   155   ar
    89   159   160   ar
    90    50    49    2
    91    97    96    1
    92    97    98    1
    93   108   109    1
    94   108   107    1
    95   109   110    2
    96   130   131    1
    97   130   127    1
    98   132   131   ar
    99   132   134   ar
   100   131   133   ar
   101    49    48    1
   102   134   136   ar
   103   133   135   ar
   104    51    52    1
   105    51    48    1
   106   136   135   ar
   107   136   137    1
   108   153   152    2
   109   154   155    1
   110   154   151    1
   111   155   156   ar
   112   160   161    1
   113   160   158   ar
   114   142   139    1
   115    52    54   ar
   116    52    53   ar
   117    54    56   ar
   118   129   128    2
   119    48    47    1
   120    98    99    2
   121   139   138    1
   122   139   140    1
   123   128   138   am
   124   128   127    1
   125   151   152    1
   126   151   150    1
   127   127   126    1
   128   156   158   ar
   129    53    55   ar
   130    56    55   ar
   131    47    39   am
   132    95    93   ar
   133    95    94   ar
   134   140   141    2
   135    93    91   ar
   136    94    92   ar
   137    39    40    2
   138    39    38    1
   139    91    92   ar
   140    91    90    1
   141    37    38    1
   142   147   148    1
   143   147   146    1
   144    90    87    1
   145    44    46   ar
   146    44    42   ar
   147    38    41    1
   148    46    45   ar
   149   148   149    2
   150   125   123   ar
   151   122   123    1
   152   122   119    1
   153    42    41    1
   154    42    43   ar
   155    87    88    1
   156    87    86    1
   157   123   124   ar
   158    85    83   ar
   159    45    43   ar
   160    88    89    2
   161    84    83   ar
   162   119   118    1
   163   119   120    1
   164    83    82    1
   165   121   120    2
   166    82    79    1
   167    80    79    1
   168    80    81    2
   169    79    78    1
