@<TRIPOS>MOLECULE
tmp/1c3vA01.pdb
 117 111 0 0 0
SMALL
GASTEIGER

@<TRIPOS>ATOM
      1  N        140.3200   17.1910   19.3320 N.3    12  VAL12      -0.1245
      2  CA       141.0440   18.2270   18.5990 C.3    12  VAL12       0.1561
      3  C        142.5330   17.9010   18.4640 C.2    12  VAL12       0.2260
      4  O        143.1350   18.1380   17.4120 O.2    12  VAL12      -0.2867
      5  CB       140.9040   19.6080   19.2820 C.3    12  VAL12       0.0252
      6  CG1      141.5680   20.6780   18.4380 C.3    12  VAL12       0.0019
      7  CG2      139.4390   19.9530   19.5020 C.3    12  VAL12       0.0019
      8  N        140.2750   26.1140   26.5710 N.3    77  THR77      -0.1218
      9  CA       139.4440   27.1840   27.1230 C.3    77  THR77       0.1862
     10  C        139.4830   27.2760   28.6410 C.2    77  THR77       0.2287
     11  O        140.2410   26.5650   29.3000 O.2    77  THR77      -0.2866
     12  CB       137.9710   27.0680   26.6670 C.3    77  THR77       0.1770
     13  OG1      137.5650   25.6950   26.6700 O.3    77  THR77      -0.2211
     14  CG2      137.7900   27.6770   25.2810 C.3    77  THR77       0.0375
     15  N        140.5140   31.8560   22.2130 N.3   103  PRO103     -0.2102
     16  CA       139.2630   31.1630   22.5100 C.3   103  PRO103      0.1504
     17  C        138.7100   30.3920   21.3040 C.2   103  PRO103      0.2575
     18  O        137.9300   29.4550   21.4660 O.2   103  PRO103     -0.2718
     19  CB       138.3480   32.3030   22.9410 C.3   103  PRO103      0.0282
     20  CG       138.8470   33.4550   22.1050 C.3   103  PRO103      0.0208
     21  CD       140.3290   33.3150   22.3470 C.3   103  PRO103      0.0893
     22  N        139.1590   30.7560   20.1050 N.am  104  ASN104     -0.1975
     23  CA       138.7240   30.0900   18.8830 C.3   104  ASN104      0.1688
     24  C        139.7250   30.3430   17.7530 C.2   104  ASN104      0.2292
     25  O        140.1360   31.4790   17.5230 O.2   104  ASN104     -0.2864
     26  CB       137.3260   30.5650   18.4770 C.3   104  ASN104      0.1181
     27  CG       136.6060   29.5650   17.5860 C.2   104  ASN104      0.2629
     28  OD1      137.1000   29.1950   16.5210 O.2   104  ASN104     -0.2716
     29  ND2      135.4300   29.1210   18.0190 N.am  104  ASN104     -0.0877
     30  N        126.8320   23.3850   20.7530 N.3   132  HIS132     -0.1226
     31  CA       127.9660   22.4610   20.6920 C.3   132  HIS132      0.1752
     32  C        127.5890   20.9910   20.9050 C.2   132  HIS132      0.2596
     33  O        126.4650   20.6660   21.2990 O.2   132  HIS132     -0.2718
     34  CB       129.0200   22.8460   21.7400 C.3   132  HIS132      0.0759
     35  CG       129.7900   24.0860   21.4030 C.ar  132  HIS132      0.0818
     36  ND1      129.2570   25.3500   21.5180 N.ar  132  HIS132     -0.2268
     37  CD2      131.0500   24.2480   20.9340 C.ar  132  HIS132      0.1154
     38  CE1      130.1500   26.2400   21.1320 C.ar  132  HIS132      0.1986
     39  NE2      131.2490   25.6010   20.7730 N.ar  132  HIS132     -0.2212
     40  N        128.5600   20.1150   20.6450 N.am  133  HIS133     -0.1975
     41  CA       128.4110   18.6720   20.8280 C.3   133  HIS133      0.1656
     42  C        128.1070   18.4110   22.3030 C.2   133  HIS133      0.2291
     43  O        128.4810   19.2000   23.1700 O.2   133  HIS133     -0.2864
     44  CB       129.6990   17.9420   20.4090 C.3   133  HIS133      0.0771
     45  CG       130.9310   18.4340   21.1060 C.ar  133  HIS133      0.0820
     46  ND1      131.3090   17.9970   22.3540 N.ar  133  HIS133     -0.2267
     47  CD2      131.8540   19.3560   20.7330 C.ar  133  HIS133      0.1154
     48  CE1      132.4060   18.6240   22.7270 C.ar  133  HIS133      0.1986
     49  NE2      132.7610   19.4570   21.7650 N.ar  133  HIS133     -0.2212
     50  N        130.8940   18.7260   25.5580 N.3   136  LYS136     -0.1245
     51  CA       131.4890   19.9490   26.0920 C.3   136  LYS136      0.1561
     52  C        131.2190   20.0450   27.5930 C.2   136  LYS136      0.2260
     53  O        130.0830   19.8870   28.0350 O.2   136  LYS136     -0.2867
     54  CB       130.9170   21.1810   25.3930 C.3   136  LYS136      0.0271
     55  CG       131.9680   22.1970   24.9900 C.3   136  LYS136      0.0035
     56  CD       131.4490   23.6120   25.1420 C.3   136  LYS136      0.0206
     57  CE       132.4200   24.6370   24.5700 C.3   136  LYS136      0.1093
     58  NZ       133.8090   24.5430   25.1160 N.3   136  LYS136     -0.1314
     59  N        132.0310   22.8280   29.6050 N.3   138  ASP138     -0.1239
     60  CA       131.6860   24.1920   29.9950 C.3   138  ASP138      0.1674
     61  C        130.5430   24.8250   29.1960 C.2   138  ASP138      0.2266
     62  O        130.4420   24.6460   27.9820 O.2   138  ASP138     -0.2867
     63  CB       132.9430   25.0840   29.9360 C.3   138  ASP138      0.1410
     64  CG       133.6740   24.9980   28.5910 C.2   138  ASP138      0.3668
     65  OD1      134.0360   23.8770   28.1500 O.co2 138  ASP138     -0.2456
     66  OD2      133.9190   26.0640   27.9790 O.co2 138  ASP138     -0.2456
     67  N        130.1430   28.4560   25.9530 N.3   141  SER141     -0.1202
     68  CA       131.4570   28.3210   25.3410 C.3   141  SER141      0.2020
     69  C        132.3160   29.5380   25.6510 C.2   141  SER141      0.2619
     70  O        131.7920   30.6090   25.9610 O.2   141  SER141     -0.2717
     71  CB       131.3210   28.1820   23.8260 C.3   141  SER141      0.2103
     72  OG       130.8150   29.3710   23.2490 O.3   141  SER141     -0.2182
     73  N        133.6330   29.3690   25.5580 N.am  142  GLY142     -0.1942
     74  CA       134.5490   30.4660   25.8190 C.3   142  GLY142      0.2014
     75  C        134.3450   31.5910   24.8250 C.2   142  GLY142      0.2639
     76  O        134.3610   32.7690   25.1930 O.2   142  GLY142     -0.2714
     77  N        134.1160   31.2170   23.5670 N.am  143  THR143     -0.1950
     78  CA       133.8850   32.1730   22.4870 C.3   143  THR143      0.1897
     79  C        132.6120   32.9820   22.7330 C.2   143  THR143      0.2313
     80  O        132.6050   34.1990   22.5660 O.2   143  THR143     -0.2863
     81  CB       133.7660   31.4570   21.1230 C.3   143  THR143      0.1794
     82  OG1      134.9510   30.6920   20.8800 O.3   143  THR143     -0.2208
     83  CG2      133.5800   32.4650   19.9950 C.3   143  THR143      0.0378
     84  N        129.0510   20.2600   16.3720 N.3   191  VAL191     -0.1231
     85  CA       130.4700   20.3970   16.6790 C.3   191  VAL191      0.1692
     86  C        130.6760   21.7060   17.4430 C.2   191  VAL191      0.2591
     87  O        130.6770   21.7140   18.6720 O.2   191  VAL191     -0.2718
     88  CB       131.3460   20.3660   15.3990 C.3   191  VAL191      0.0266
     89  CG1      132.8250   20.4610   15.7650 C.3   191  VAL191      0.0020
     90  CG2      131.0930   19.0800   14.6060 C.3   191  VAL191      0.0020
     91  N        130.7860   22.8150   16.7160 N.am  192  ALA192     -0.1980
     92  CA       130.9920   24.1340   17.3140 C.3   192  ALA192      0.1597
     93  C        130.2650   25.1630   16.4620 C.2   192  ALA192      0.2287
     94  O        130.6240   25.3960   15.3050 O.2   192  ALA192     -0.2864
     95  CB       132.4750   24.4560   17.3810 C.3   192  ALA192      0.0319
     96  N        136.3580   19.6350   12.8310 N.3   214  ARG214     -0.1245
     97  CA       137.4330   20.0930   13.7020 C.3   214  ARG214      0.1563
     98  C        138.6840   20.5150   12.9510 C.2   214  ARG214      0.2260
     99  O        139.5700   21.1430   13.5240 O.2   214  ARG214     -0.2867
    100  CB       137.7720   19.0510   14.7640 C.3   214  ARG214      0.0307
    101  CG       136.6710   18.8850   15.7810 C.3   214  ARG214      0.0489
    102  CD       137.1780   18.2440   17.0390 C.3   214  ARG214      0.2205
    103  NE       136.1450   18.1600   18.0680 N.pl3 214  ARG214     -0.0865
    104  CZ       135.0010   17.4970   17.9330 C.cat 214  ARG214      0.5346
    105  NH1      134.7190   16.8510   16.8090 N.pl3 214  ARG214      0.1354
    106  NH2      134.1470   17.4560   18.9440 N.pl3 214  ARG214      0.1354
    107  N        139.9550   24.3210   12.7030 N.3   217  PHE217     -0.1241
    108  CA       140.8350   25.0000   13.6580 C.3   217  PHE217      0.1605
    109  C        142.3080   24.9190   13.2680 C.2   217  PHE217      0.2264
    110  O        143.1220   25.6970   13.7670 O.2   217  PHE217     -0.2867
    111  CB       140.6600   24.4220   15.0650 C.3   217  PHE217      0.0534
    112  CG       139.2470   24.4450   15.5680 C.ar  217  PHE217     -0.0203
    113  CD1      138.6120   23.2600   15.9270 C.ar  217  PHE217     -0.0042
    114  CD2      138.5440   25.6410   15.6620 C.ar  217  PHE217     -0.0042
    115  CE1      137.2950   23.2650   16.3760 C.ar  217  PHE217     -0.0003
    116  CE2      137.2210   25.6600   16.1100 C.ar  217  PHE217     -0.0003
    117  CZ       136.5940   24.4680   16.4650 C.ar  217  PHE217     -0.0000
@<TRIPOS>BOND
     1   107   108    1
     2    96    97    1
     3    98    99    2
     4    98    97    1
     5   109   108    1
     6   109   110    2
     7   108   111    1
     8    97   100    1
     9    90    88    1
    10   100   101    1
    11   111   112    1
    12    94    93    2
    13    88    89    1
    14    88    85    1
    15   112   114   ar
    16   112   113   ar
    17   114   116   ar
    18   101   102    1
    19   113   115   ar
    20   116   117   ar
    21    84    85    1
    22   115   117   ar
    23    93    92    1
    24    28    27    2
    25    85    86    1
    26    91    92    1
    27    91    86   am
    28   105   104    1
    29   102   103    1
    30    92    95    1
    31     4     3    2
    32    86    87    2
    33    25    24    2
    34    27    29   am
    35    27    26    1
    36    24    23    1
    37   104   103    2
    38   104   106    1
    39     6     5    1
    40     3     2    1
    41    26    23    1
    42     2     5    1
    43     2     1    1
    44    23    22    1
    45     5     7    1
    46    83    81    1
    47    22    17   am
    48    44    41    1
    49    44    45    1
    50    40    41    1
    51    40    32   am
    52    31    30    1
    53    31    32    1
    54    31    34    1
    55    47    45   ar
    56    47    49   ar
    57    39    37   ar
    58    39    38   ar
    59    41    42    1
    60    82    81    1
    61    32    33    2
    62    37    35   ar
    63    45    46   ar
    64    81    78    1
    65    38    36   ar
    66    17    18    2
    67    17    16    1
    68    35    36   ar
    69    35    34    1
    70    49    48   ar
    71    20    21    1
    72    20    19    1
    73    15    21    1
    74    15    16    1
    75    42    43    2
    76    46    48   ar
    77    78    79    1
    78    78    77    1
    79    16    19    1
    80    80    79    2
    81    72    71    1
    82    77    75   am
    83    71    68    1
    84    57    58    1
    85    57    56    1
    86    75    76    2
    87    75    74    1
    88    55    56    1
    89    55    54    1
    90    14    12    1
    91    68    69    1
    92    68    67    1
    93    54    51    1
    94    73    69   am
    95    73    74    1
    96    50    51    1
    97    69    70    2
    98    51    52    1
    99     8     9    1
   100    12    13    1
   101    12     9    1
   102     9    10    1
   103    52    53    2
   104    66    64   ar
   105    62    61    2
   106    65    64   ar
   107    64    63    1
   108    10    11    2
   109    61    60    1
   110    59    60    1
   111    63    60    1
