@<TRIPOS>MOLECULE
tmp/1c3xC00.pdb
 91 86 0 0 0
SMALL
GASTEIGER

@<TRIPOS>ATOM
      1  N         22.1130   14.7080   15.9050 N.3    38  SER38      -0.1217
      2  CA        23.1660   14.0540   16.6940 C.3    38  SER38       0.1889
      3  C         24.5200   14.6980   16.5340 C.2    38  SER38       0.2288
      4  O         25.1270   14.5490   15.4830 O.2    38  SER38      -0.2866
      5  CB        23.2700   12.5920   16.2930 C.3    38  SER38       0.2089
      6  OG        21.9840   12.0160   16.4030 O.3    38  SER38      -0.2183
      7  N         23.6690   13.5040   12.3000 N.3   119  GLY119     -0.1210
      8  CA        24.9500   12.8280   12.3890 C.3   119  GLY119      0.1956
      9  C         24.6860   11.5810   11.5750 C.2   119  GLY119      0.2612
     10  O         23.5500   11.0850   11.5280 O.2   119  GLY119     -0.2717
     11  N         25.6940   11.0770   10.8870 N.am  120  CYS120     -0.1956
     12  CA        25.4620    9.8910   10.0760 C.3   120  CYS120      0.1843
     13  C         26.7670    9.1230    9.9090 C.2   120  CYS120      0.2626
     14  O         27.8220    9.5340   10.4220 O.2   120  CYS120     -0.2714
     15  CB        24.9540   10.3330    8.7010 C.3   120  CYS120      0.0997
     16  SG        26.2480   11.2630    7.8460 S.3   120  CYS120     -0.0797
     17  N         26.7080    7.9990    9.2030 N.am  121  GLY121     -0.1954
     18  CA        27.9470    7.2740    8.9520 C.3   121  GLY121      0.1869
     19  C         28.3610    7.7030    7.5480 C.2   121  GLY121      0.2309
     20  O         27.4570    8.0190    6.7300 O.2   121  GLY121     -0.2863
     21  N         17.7360    5.1960    6.3120 N.3   182  PHE182     -0.1241
     22  CA        17.2460    3.8610    6.5880 C.3   182  PHE182      0.1605
     23  C         16.2790    4.0310    7.7430 C.2   182  PHE182      0.2264
     24  O         16.4300    4.9330    8.5600 O.2   182  PHE182     -0.2867
     25  CB        18.3760    2.9390    7.0390 C.3   182  PHE182      0.0534
     26  CG        19.3010    2.5180    5.9360 C.ar  182  PHE182     -0.0203
     27  CD1       20.2240    3.4130    5.3960 C.ar  182  PHE182     -0.0042
     28  CD2       19.2360    1.2090    5.4110 C.ar  182  PHE182     -0.0042
     29  CE1       21.0690    3.0130    4.3420 C.ar  182  PHE182     -0.0003
     30  CE2       20.0790    0.8100    4.3580 C.ar  182  PHE182     -0.0003
     31  CZ        20.9880    1.7080    3.8350 C.ar  182  PHE182     -0.0000
     32  N         22.0810   -0.2040   13.1980 N.3   187  TYR187     -0.1227
     33  CA        22.8870    0.3570   12.1390 C.3   187  TYR187      0.1736
     34  C         22.9820   -0.5910   10.9370 C.2   187  TYR187      0.2595
     35  O         22.3050   -1.6280   10.9240 O.2   187  TYR187     -0.2718
     36  CB        24.2690    0.7100   12.6530 C.3   187  TYR187      0.0548
     37  CG        24.2650    1.8620   13.6320 C.ar  187  TYR187     -0.0200
     38  CD1       23.2770    2.8460   13.5860 C.ar  187  TYR187     -0.0009
     39  CD2       25.3400    2.0590   14.4990 C.ar  187  TYR187     -0.0009
     40  CE1       23.3670    4.0100   14.3680 C.ar  187  TYR187      0.0417
     41  CE2       25.4400    3.2260   15.2900 C.ar  187  TYR187      0.0417
     42  CZ        24.4540    4.1950   15.2110 C.ar  187  TYR187      0.1957
     43  OH        24.6030    5.3490   15.9480 O.3   187  TYR187     -0.2866
     44  N         23.8000   -0.2460    9.9260 N.am  188  GLU188     -0.1979
     45  CA        23.9120   -1.0880    8.7330 C.3   188  GLU188      0.1602
     46  C         24.9960   -2.1320    8.7790 C.2   188  GLU188      0.2287
     47  O         26.0520   -1.9170    9.3890 O.2   188  GLU188     -0.2864
     48  CB        24.1490   -0.2610    7.4910 C.3   188  GLU188      0.0415
     49  CG        23.0160    0.7040    7.1330 C.3   188  GLU188      0.1163
     50  CD        22.8630    1.7880    8.1880 C.2   188  GLU188      0.3649
     51  OE1       23.9270    2.3190    8.6180 O.co2 188  GLU188     -0.2457
     52  OE2       21.6980    2.0880    8.5730 O.co2 188  GLU188     -0.2457
     53  N         24.8590    7.6560    5.1400 N.3   204  VAL204     -0.1231
     54  CA        23.7020    6.9190    5.6260 C.3   204  VAL204      0.1692
     55  C         23.3740    7.3590    7.0620 C.2   204  VAL204      0.2593
     56  O         24.2750    7.5700    7.8920 O.2   204  VAL204     -0.2718
     57  CB        23.9400    5.3480    5.5970 C.3   204  VAL204      0.0266
     58  CG1       24.0610    4.8410    4.1050 C.3   204  VAL204      0.0020
     59  CG2       25.2040    5.0060    6.4030 C.3   204  VAL204      0.0020
     60  N         22.0800    7.4930    7.3540 N.am  205  GLY205     -0.1942
     61  CA        21.6700    7.9210    8.6840 C.3   205  GLY205      0.2014
     62  C         20.2240    7.5510    8.8840 C.2   205  GLY205      0.2638
     63  O         19.6420    6.8660    8.0130 O.2   205  GLY205     -0.2714
     64  N         19.6160    8.0140    9.9770 N.am  206  MET206     -0.1976
     65  CA        18.2220    7.6380   10.2540 C.3   206  MET206      0.1605
     66  C         17.2120    8.7480   10.2780 C.2   206  MET206      0.2287
     67  O         16.1980    8.6410   11.0000 O.2   206  MET206     -0.2864
     68  CB        18.1490    6.9340   11.5980 C.3   206  MET206      0.0413
     69  CG        19.1430    5.8110   11.7030 C.3   206  MET206      0.0598
     70  SD        19.0840    5.0410   13.2870 S.3   206  MET206     -0.1393
     71  CE        20.5400    4.0720   13.1300 C.3   206  MET206      0.0692
     72  N         29.6150   10.9970   12.0250 N.3   229  THR229     -0.1203
     73  CA        29.8850   10.4560   13.3790 C.3   229  THR229      0.1994
     74  C         31.1100    9.5850   13.1530 C.2   229  THR229      0.2617
     75  O         32.0670    9.6180   13.9050 O.2   229  THR229     -0.2717
     76  CB        28.7930    9.4980   13.8620 C.3   229  THR229      0.1784
     77  OG1       27.5140    9.9690   13.4280 O.3   229  THR229     -0.2211
     78  CG2       28.7900    9.4350   15.4050 C.3   229  THR229      0.0376
     79  N         31.0290    8.7510   12.1300 N.am  230  ASN230     -0.1974
     80  CA        32.1660    7.9560   11.6950 C.3   230  ASN230      0.1688
     81  C         31.8300    7.1740   10.4260 C.2   230  ASN230      0.2292
     82  O         30.6720    7.1310    9.9850 O.2   230  ASN230     -0.2864
     83  CB        32.7180    7.0050   12.7480 C.3   230  ASN230      0.1181
     84  CG        31.8640    5.7990   12.9390 C.2   230  ASN230      0.2629
     85  OD1       32.3330    4.7650   13.4510 O.2   230  ASN230     -0.2716
     86  ND2       30.5830    5.9090   12.5550 N.am  230  ASN230     -0.0877
     87  N         31.0280    4.3850    7.7170 N.3   232  ALA232     -0.1245
     88  CA        30.0400    3.2980    7.7660 C.3   232  ALA232      0.1562
     89  C         30.7380    1.9370    7.9270 C.2   232  ALA232      0.2260
     90  O         31.8660    1.7550    7.4820 O.2   232  ALA232     -0.2867
     91  CB        29.1810    3.2990    6.5030 C.3   232  ALA232      0.0290
@<TRIPOS>BOND
     1    31    29   ar
     2    31    30   ar
     3    58    57    1
     4    29    27   ar
     5    30    28   ar
     6    53    54    1
     7    27    26   ar
     8    28    26   ar
     9    57    54    1
    10    57    59    1
    11    54    55    1
    12    26    25    1
    13    21    22    1
    14    91    88    1
    15    22    25    1
    16    22    23    1
    17    20    19    2
    18    55    60   am
    19    55    56    2
    20    49    48    1
    21    49    50    1
    22    60    61    1
    23    90    89    2
    24    48    45    1
    25    19    18    1
    26    87    88    1
    27    23    24    2
    28    88    89    1
    29    16    15    1
    30    63    62    2
    31    50    52   ar
    32    50    51   ar
    33    61    62    1
    34    15    12    1
    35    45    46    1
    36    45    44    1
    37    46    47    2
    38    62    64   am
    39    18    17    1
    40    17    13   am
    41    13    12    1
    42    13    14    2
    43    44    34   am
    44    64    65    1
    45    82    81    2
    46    12    11    1
    47    65    66    1
    48    65    68    1
    49    66    67    2
    50    81    80    1
    51    11     9   am
    52    35    34    2
    53    34    33    1
    54    10     9    2
    55     9     8    1
    56    68    69    1
    57    80    79    1
    58    80    83    1
    59    69    70    1
    60    72    73    1
    61    79    74   am
    62    33    36    1
    63    33    32    1
    64     7     8    1
    65    86    84   am
    66    36    37    1
    67    83    84    1
    68    84    85    2
    69    71    70    1
    70    74    73    1
    71    74    75    2
    72    73    76    1
    73    77    76    1
    74    38    37   ar
    75    38    40   ar
    76    37    39   ar
    77    76    78    1
    78    40    42   ar
    79    39    41   ar
    80    42    41   ar
    81    42    43    1
    82     4     3    2
    83     1     2    1
    84     5     6    1
    85     5     2    1
    86     3     2    1
