@<TRIPOS>MOLECULE
tmp/1c41E01.pdb
 119 120 0 0 0
SMALL
GASTEIGER

@<TRIPOS>ATOM
      1  N          2.5490   -3.4090   74.0440 N.3    19  ALA19      -0.1245
      2  CA         2.9680   -4.7440   73.6440 C.3    19  ALA19       0.1562
      3  C          3.7390   -5.3230   74.8200 C.2    19  ALA19       0.2260
      4  O          4.0210   -4.6220   75.8040 O.2    19  ALA19      -0.2867
      5  CB         3.8630   -4.6790   72.4040 C.3    19  ALA19       0.0290
      6  N          6.7440   -7.3340   74.3120 N.3    21  TRP21      -0.1227
      7  CA         8.1240   -7.6640   73.9980 C.3    21  TRP21       0.1737
      8  C          8.9880   -6.6490   74.7190 C.2    21  TRP21       0.2595
      9  O          8.6620   -5.4710   74.7220 O.2    21  TRP21      -0.2718
     10  CB         8.3930   -7.5590   72.5080 C.3    21  TRP21       0.0564
     11  CG         8.1630   -8.8080   71.7340 C.ar   21  TRP21       0.0003
     12  CD1        6.9620   -9.3820   71.4310 C.ar   21  TRP21       0.0946
     13  CD2        9.1660   -9.6180   71.1110 C.ar   21  TRP21       0.0152
     14  NE1        7.1560  -10.5020   70.6480 N.ar   21  TRP21      -0.2442
     15  CE2        8.4990  -10.6670   70.4390 C.ar   21  TRP21       0.0810
     16  CE3       10.5600   -9.5550   71.0550 C.ar   21  TRP21       0.0012
     17  CZ2        9.1750  -11.6380   69.7210 C.ar   21  TRP21       0.0191
     18  CZ3       11.2330  -10.5210   70.3410 C.ar   21  TRP21       0.0001
     19  CH2       10.5370  -11.5540   69.6800 C.ar   21  TRP21       0.0015
     20  N         10.0830   -7.1030   75.3250 N.am   22  ASN22      -0.1974
     21  CA        10.9670   -6.2070   76.0560 C.3    22  ASN22       0.1688
     22  C         10.2120   -5.5640   77.2270 C.2    22  ASN22       0.2292
     23  O         10.2340   -4.3450   77.3920 O.2    22  ASN22      -0.2864
     24  CB        11.4780   -5.1310   75.1060 C.3    22  ASN22       0.1181
     25  CG        12.2010   -5.7120   73.9200 C.2    22  ASN22       0.2629
     26  OD1       13.2340   -6.3610   74.0790 O.2    22  ASN22      -0.2716
     27  ND2       11.6660   -5.4920   72.7200 N.am   22  ASN22      -0.0877
     28  N          0.7270   -9.2020   72.5690 N.3    53  PRO53      -0.2102
     29  CA         2.0670   -9.7740   72.4990 C.3    53  PRO53       0.1504
     30  C          3.1400   -8.8840   71.8750 C.2    53  PRO53       0.2576
     31  O          4.1000   -8.5070   72.5510 O.2    53  PRO53      -0.2718
     32  CB         1.8380  -11.0900   71.7550 C.3    53  PRO53       0.0282
     33  CG         0.6160  -10.8330   70.9630 C.3    53  PRO53       0.0208
     34  CD        -0.2510  -10.0710   71.9020 C.3    53  PRO53       0.0893
     35  N          2.9870   -8.5380   70.6040 N.am   54  GLY54      -0.1943
     36  CA         3.9850   -7.6960   69.9690 C.3    54  GLY54       0.2014
     37  C          3.4550   -6.3820   69.4360 C.2    54  GLY54       0.2640
     38  O          2.2620   -6.1080   69.5260 O.2    54  GLY54      -0.2714
     39  N          4.3440   -5.5640   68.8790 N.am   55  SER55      -0.1935
     40  CA         3.9590   -4.2700   68.3140 C.3    55  SER55       0.2055
     41  C          3.0010   -4.3990   67.1290 C.2    55  SER55       0.2643
     42  O          2.1710   -3.5210   66.8960 O.2    55  SER55      -0.2714
     43  CB         5.1900   -3.4980   67.8600 C.3    55  SER55       0.2130
     44  OG         5.9090   -3.0190   68.9620 O.3    55  SER55      -0.2179
     45  N          3.1260   -5.4840   66.3750 N.am   56  TRP56      -0.1959
     46  CA         2.2700   -5.7000   65.2330 C.3    56  TRP56       0.1771
     47  C          0.8100   -5.6550   65.6510 C.2    56  TRP56       0.2619
     48  O         -0.0600   -5.2210   64.8860 O.2    56  TRP56      -0.2715
     49  CB         2.5920   -7.0460   64.5980 C.3    56  TRP56       0.0590
     50  CG         1.7570   -7.3470   63.4080 C.ar   56  TRP56       0.0006
     51  CD1        0.5880   -8.0400   63.3860 C.ar   56  TRP56       0.0946
     52  CD2        1.9970   -6.9190   62.0650 C.ar   56  TRP56       0.0152
     53  NE1        0.0790   -8.0710   62.1120 N.ar   56  TRP56      -0.2442
     54  CE2        0.9270   -7.3900   61.2810 C.ar   56  TRP56       0.0810
     55  CE3        3.0120   -6.1830   61.4480 C.ar   56  TRP56       0.0012
     56  CZ2        0.8430   -7.1490   59.9090 C.ar   56  TRP56       0.0191
     57  CZ3        2.9270   -5.9450   60.0850 C.ar   56  TRP56       0.0001
     58  CH2        1.8530   -6.4270   59.3320 C.ar   56  TRP56       0.0015
     59  N          0.5460   -6.0980   66.8740 N.am   57  GLU57      -0.1977
     60  CA        -0.8140   -6.1260   67.4030 C.3    57  GLU57       0.1602
     61  C         -1.2980   -4.7540   67.8440 C.2    57  GLU57       0.2287
     62  O         -2.4960   -4.5220   67.9970 O.2    57  GLU57      -0.2864
     63  CB        -0.8970   -7.0820   68.5940 C.3    57  GLU57       0.0415
     64  CG        -0.9400   -8.5610   68.2370 C.3    57  GLU57       0.1163
     65  CD         0.2980   -9.0560   67.5050 C.2    57  GLU57       0.3649
     66  OE1        1.4210   -8.9780   68.0630 O.co2  57  GLU57      -0.2457
     67  OE2        0.1320   -9.5360   66.3620 O.co2  57  GLU57      -0.2457
     68  N          8.0770   -1.5660   71.8910 N.3    85  VAL85      -0.1231
     69  CA         9.5260   -1.4270   71.8720 C.3    85  VAL85       0.1692
     70  C         10.1440   -2.3620   70.8430 C.2    85  VAL85       0.2592
     71  O         10.2400   -3.5610   71.0690 O.2    85  VAL85      -0.2718
     72  CB        10.1400   -1.7220   73.2750 C.3    85  VAL85       0.0266
     73  CG1       11.6530   -1.7430   73.1980 C.3    85  VAL85       0.0020
     74  CG2        9.6990   -0.6760   74.2720 C.3    85  VAL85       0.0020
     75  N         10.5400   -1.8080   69.7020 N.am   86  LEU86      -0.1966
     76  CA        11.1730   -2.5920   68.6430 C.3    86  LEU86       0.1728
     77  C         12.6760   -2.4180   68.7570 C.2    86  LEU86       0.2616
     78  O         13.1580   -1.3040   68.9410 O.2    86  LEU86      -0.2715
     79  CB        10.7530   -2.1130   67.2440 C.3    86  LEU86       0.0311
     80  CG         9.4270   -2.4320   66.5390 C.3    86  LEU86       0.0022
     81  CD1        9.1190   -3.8840   66.6940 C.3    86  LEU86       0.0001
     82  CD2        8.3020   -1.6040   67.0890 C.3    86  LEU86       0.0001
     83  N         13.4160   -3.5120   68.6450 N.am   87  ILE87      -0.1977
     84  CA        14.8700   -3.4470   68.7070 C.3    87  ILE87       0.1596
     85  C         15.4320   -4.2400   67.5380 C.2    87  ILE87       0.2287
     86  O         15.0330   -5.3750   67.3190 O.2    87  ILE87      -0.2864
     87  CB        15.4240   -4.0440   70.0190 C.3    87  ILE87       0.0276
     88  CG1       14.7750   -3.3630   71.2290 C.3    87  ILE87       0.0022
     89  CG2       16.9260   -3.8490   70.0670 C.3    87  ILE87       0.0022
     90  CD1       15.2310   -3.9210   72.5740 C.3    87  ILE87       0.0001
     91  N         13.4350   -7.9950   59.9340 N.3    93  HIS93      -0.1226
     92  CA        12.1690   -8.1070   60.6490 C.3    93  HIS93       0.1752
     93  C         11.8660   -6.7760   61.3380 C.2    93  HIS93       0.2596
     94  O         10.7620   -6.2480   61.2490 O.2    93  HIS93      -0.2718
     95  CB        12.2950   -9.2040   61.6980 C.3    93  HIS93       0.0759
     96  CG        11.0250   -9.5120   62.4150 C.ar   93  HIS93       0.0818
     97  ND1        9.9710  -10.1570   61.8070 N.ar   93  HIS93      -0.2268
     98  CD2       10.6560   -9.3020   63.6990 C.ar   93  HIS93       0.1154
     99  CE1        9.0070  -10.3360   62.6920 C.ar   93  HIS93       0.1986
    100  NE2        9.3970   -9.8260   63.8470 N.ar   93  HIS93      -0.2212
    101  N         12.8650   -6.2470   62.0330 N.am   94  PHE94      -0.1976
    102  CA        12.7400   -4.9840   62.7400 C.3    94  PHE94       0.1639
    103  C         12.1420   -3.8880   61.8790 C.2    94  PHE94       0.2290
    104  O         11.1240   -3.2990   62.2270 O.2    94  PHE94      -0.2864
    105  CB        14.1100   -4.5340   63.2230 C.3    94  PHE94       0.0560
    106  CG        14.1420   -3.1220   63.7060 C.ar   94  PHE94      -0.0200
    107  CD1       13.5440   -2.7740   64.9100 C.ar   94  PHE94      -0.0042
    108  CD2       14.7740   -2.1390   62.9640 C.ar   94  PHE94      -0.0042
    109  CE1       13.5770   -1.4610   65.3730 C.ar   94  PHE94      -0.0003
    110  CE2       14.8130   -0.8260   63.4190 C.ar   94  PHE94      -0.0003
    111  CZ        14.2140   -0.4870   64.6240 C.ar   94  PHE94      -0.0000
    112  N          8.4250   -4.3990   60.4940 N.3    97  ILE97      -0.1245
    113  CA         7.3950   -4.2900   61.5050 C.3    97  ILE97       0.1561
    114  C          7.2530   -2.8580   61.9630 C.2    97  ILE97       0.2260
    115  O          6.1420   -2.3770   62.1470 O.2    97  ILE97      -0.2867
    116  CB         7.7170   -5.1940   62.6870 C.3    97  ILE97       0.0252
    117  CG1        7.3810   -6.6300   62.2930 C.3    97  ILE97       0.0019
    118  CG2        6.9620   -4.7460   63.9390 C.3    97  ILE97       0.0019
    119  CD1        7.6810   -7.6070   63.3350 C.3    97  ILE97       0.0001
@<TRIPOS>BOND
     1    58    56   ar
     2    58    57   ar
     3    56    54   ar
     4    91    92    1
     5    57    55   ar
     6   112   113    1
     7    92    93    1
     8    92    95    1
     9    94    93    2
    10    54    52   ar
    11    54    53   ar
    12    93   101   am
    13    55    52   ar
    14   113   114    1
    15   113   116    1
    16    95    96    1
    17    97    96   ar
    18    97    99   ar
    19   103   104    2
    20   103   102    1
    21   114   115    2
    22   101   102    1
    23    52    50   ar
    24    53    51   ar
    25   117   116    1
    26   117   119    1
    27    96    98   ar
    28   116   118    1
    29    99   100   ar
    30   102   105    1
    31   108   110   ar
    32   108   106   ar
    33   105   106    1
    34    51    50   ar
    35    50    49    1
    36   110   111   ar
    37    98   100   ar
    38   106   107   ar
    39    49    46    1
    40   111   109   ar
    41    48    47    2
    42   107   109   ar
    43    46    47    1
    44    46    45    1
    45    47    59   am
    46    67    65   ar
    47    45    41   am
    48    80    81    1
    49    80    82    1
    50    80    79    1
    51    59    60    1
    52    42    41    2
    53    41    40    1
    54    79    76    1
    55    86    85    2
    56    60    61    1
    57    60    63    1
    58    65    66   ar
    59    65    64    1
    60    85    84    1
    61    61    62    2
    62    43    40    1
    63    43    44    1
    64    64    63    1
    65    40    39    1
    66    76    77    1
    67    76    75    1
    68    83    84    1
    69    83    77   am
    70    84    87    1
    71    77    78    2
    72    39    37   am
    73    37    38    2
    74    37    36    1
    75    19    17   ar
    76    19    18   ar
    77    75    70   am
    78    17    15   ar
    79    36    35    1
    80    87    89    1
    81    87    88    1
    82    18    16   ar
    83    15    14   ar
    84    15    13   ar
    85    35    30   am
    86    14    12   ar
    87    70    71    2
    88    70    69    1
    89    33    32    1
    90    33    34    1
    91    16    13   ar
    92    13    11   ar
    93    88    90    1
    94    12    11   ar
    95    11    10    1
    96    32    29    1
    97    69    68    1
    98    69    72    1
    99    30    29    1
   100    30    31    2
   101    34    28    1
   102     5     2    1
   103    29    28    1
   104    10     7    1
   105    27    25   am
   106    73    72    1
   107    72    74    1
   108     2     1    1
   109     2     3    1
   110    25    26    2
   111    25    24    1
   112     7     6    1
   113     7     8    1
   114     8     9    2
   115     8    20   am
   116     3     4    2
   117    24    21    1
   118    20    21    1
   119    21    22    1
   120    22    23    2
