@<TRIPOS>MOLECULE
tmp/1c47A00.pdb
 165 157 0 0 0
SMALL
GASTEIGER

@<TRIPOS>ATOM
      1  N         30.1950   67.1590   75.6860 N.3    18  THR18      -0.1203
      2  CA        30.3220   68.3700   74.7790 C.3    18  THR18       0.1994
      3  C         30.7500   68.0050   73.3350 C.2    18  THR18       0.2618
      4  O         30.2640   68.5780   72.3610 O.2    18  THR18      -0.2717
      5  CB        31.3300   69.3090   75.3390 C.3    18  THR18       0.1784
      6  OG1       32.4890   68.4690   75.6140 O.3    18  THR18      -0.2211
      7  CG2       30.8120   69.9820   76.6150 C.3    18  THR18       0.0376
      8  N         31.6720   67.0400   73.1840 N.am   19  SER19      -0.1951
      9  CA        32.0720   66.6120   71.8300 C.3    19  SER19       0.1924
     10  C         31.4800   65.2360   71.4870 C.2    19  SER19       0.2314
     11  O         32.1580   64.3320   71.0050 O.2    19  SER19      -0.2863
     12  CB        33.5860   66.5760   71.6830 C.3    19  SER19       0.2116
     13  OG        34.1360   67.8800   71.7520 O.3    19  SER19      -0.2180
     14  N         31.6010   60.0190   73.5040 N.3    22  ARG22      -0.1245
     15  CA        32.9210   59.2420   73.5630 C.3    22  ARG22       0.1563
     16  C         32.7840   58.0230   74.5860 C.2    22  ARG22       0.2260
     17  O         32.3240   58.1660   75.7240 O.2    22  ARG22      -0.2867
     18  CB        34.0420   60.1820   74.0440 C.3    22  ARG22       0.0307
     19  CG        35.1170   60.4710   73.0210 C.3    22  ARG22       0.0489
     20  CD        34.5310   61.1720   71.7440 C.3    22  ARG22       0.2205
     21  NE        34.7050   62.6560   71.7040 N.pl3  22  ARG22      -0.0865
     22  CZ        35.9400   63.2260   71.6530 C.cat  22  ARG22       0.5346
     23  NH1       37.0580   62.4780   71.6720 N.pl3  22  ARG22       0.1354
     24  NH2       36.0570   64.5600   71.5110 N.pl3  22  ARG22       0.1354
     25  N         37.7350   61.3320   67.8610 N.3   116  SER116     -0.1202
     26  CA        38.8070   62.3850   67.7430 C.3   116  SER116      0.2020
     27  C         40.2590   61.9630   68.1400 C.2   116  SER116      0.2618
     28  O         40.8160   61.0200   67.6380 O.2   116  SER116     -0.2717
     29  CB        38.3920   63.6550   68.5540 C.3   116  SER116      0.2103
     30  OG        37.8270   64.6070   67.7150 O.3   116  SER116     -0.2182
     31  N         40.9170   62.7190   69.0260 N.am  117  HIS117     -0.1975
     32  CA        42.3000   62.3630   69.5030 C.3   117  HIS117      0.1656
     33  C         42.3550   60.9810   70.3190 C.2   117  HIS117      0.2291
     34  O         43.4180   60.5200   70.7510 O.2   117  HIS117     -0.2864
     35  CB        42.8180   63.4620   70.3940 C.3   117  HIS117      0.0771
     36  CG        41.8990   63.7260   71.5750 C.ar  117  HIS117      0.0820
     37  ND1       40.7390   64.4410   71.5020 N.ar  117  HIS117     -0.2267
     38  CD2       42.1070   63.3240   72.8370 C.ar  117  HIS117      0.1154
     39  CE1       40.1850   64.4860   72.7140 C.ar  117  HIS117      0.1986
     40  NE2       41.0590   63.8100   73.5130 N.ar  117  HIS117     -0.2212
     41  N         29.3660   61.5080   67.4680 N.3   129  LYS129     -0.1245
     42  CA        29.2550   63.0100   67.5980 C.3   129  LYS129      0.1561
     43  C         28.0170   63.5940   66.7480 C.2   129  LYS129      0.2260
     44  O         27.8950   63.3470   65.5750 O.2   129  LYS129     -0.2867
     45  CB        30.5750   63.6170   67.1160 C.3   129  LYS129      0.0271
     46  CG        30.6210   65.1230   67.2250 C.3   129  LYS129      0.0035
     47  CD        32.0430   65.5780   67.6540 C.3   129  LYS129      0.0206
     48  CE        33.0450   65.5050   66.4940 C.3   129  LYS129      0.1093
     49  NZ        34.4120   65.8890   66.9300 N.3   129  LYS129     -0.1314
     50  N         44.9250   65.0390   63.7760 N.3   287  ASP287     -0.1239
     51  CA        44.3270   64.0620   64.7350 C.3   287  ASP287      0.1674
     52  C         43.3000   63.1010   64.0900 C.2   287  ASP287      0.2266
     53  O         43.0880   63.1200   62.8760 O.2   287  ASP287     -0.2867
     54  CB        43.6850   64.8230   65.9050 C.3   287  ASP287      0.1410
     55  CG        42.3650   65.5210   65.5710 C.2   287  ASP287      0.3668
     56  OD1       41.4050   65.4770   66.4140 O.co2 287  ASP287     -0.2456
     57  OD2       42.2800   66.1040   64.5120 O.co2 287  ASP287     -0.2456
     58  N         40.1630   67.7630   62.8810 N.3   291  ASP291     -0.1225
     59  CA        39.9460   69.1510   63.2070 C.3   291  ASP291      0.1805
     60  C         41.1220   69.8320   63.9530 C.2   291  ASP291      0.2597
     61  O         41.0610   71.0410   64.2340 O.2   291  ASP291     -0.2718
     62  CB        38.6490   69.3530   63.9810 C.3   291  ASP291      0.1424
     63  CG        38.5440   68.7340   65.3890 C.2   291  ASP291      0.3668
     64  OD1       39.5800   68.4160   66.0080 O.co2 291  ASP291     -0.2456
     65  OD2       37.3710   68.5590   65.8760 O.co2 291  ASP291     -0.2456
     66  N         42.2080   69.0720   64.2510 N.am  292  ARG292     -0.1979
     67  CA        43.3880   69.6440   64.9870 C.3   292  ARG292      0.1597
     68  C         44.6640   69.6250   64.1920 C.2   292  ARG292      0.2287
     69  O         44.7650   68.9060   63.1720 O.2   292  ARG292     -0.2864
     70  CB        43.6360   68.8610   66.2000 C.3   292  ARG292      0.0334
     71  CG        42.6110   69.0310   67.2890 C.3   292  ARG292      0.0492
     72  CD        43.1920   68.4460   68.5580 C.3   292  ARG292      0.2205
     73  NE        42.1870   68.0300   69.4250 N.pl3 292  ARG292     -0.0865
     74  CZ        42.4820   67.6150   70.6180 C.cat 292  ARG292      0.5346
     75  NH1       43.7470   67.5670   71.0430 N.pl3 292  ARG292      0.1354
     76  NH2       41.4790   67.2510   71.4580 N.pl3 292  ARG292      0.1354
     77  N         36.7610   76.7120   77.4060 N.3   356  THR356     -0.1203
     78  CA        37.3180   75.6570   76.5210 C.3   356  THR356      0.1994
     79  C         36.1790   74.6910   76.1230 C.2   356  THR356      0.2618
     80  O         35.4030   74.2240   76.9720 O.2   356  THR356     -0.2717
     81  CB        38.5120   74.9220   77.1750 C.3   356  THR356      0.1784
     82  OG1       38.4140   73.5170   76.9820 O.3   356  THR356     -0.2211
     83  CG2       38.6320   75.1610   78.6820 C.3   356  THR356      0.0376
     84  N         36.1270   74.4420   74.8150 N.am  357  GLY357     -0.1942
     85  CA        35.1030   73.5870   74.1680 C.3   357  GLY357      0.2014
     86  C         34.4290   74.3760   73.0250 C.2   357  GLY357      0.2638
     87  O         33.4380   75.0830   73.2370 O.2   357  GLY357     -0.2714
     88  N         35.0020   74.2070   71.8490 N.am  358  TRP358     -0.1973
     89  CA        34.6160   74.9050   70.5950 C.3   358  TRP358      0.1640
     90  C         33.1940   75.5000   70.5820 C.2   358  TRP358      0.2290
     91  O         33.0370   76.6390   70.1690 O.2   358  TRP358     -0.2864
     92  CB        34.7480   73.9820   69.4060 C.3   358  TRP358      0.0576
     93  CG        35.1700   74.7720   68.1910 C.ar  358  TRP358      0.0006
     94  CD1       36.4190   74.9880   67.7680 C.ar  358  TRP358      0.0946
     95  CD2       34.2750   75.4230   67.3270 C.ar  358  TRP358      0.0152
     96  NE1       36.3180   75.8120   66.6070 N.ar  358  TRP358     -0.2442
     97  CE2       35.0480   76.0600   66.3690 C.ar  358  TRP358      0.0810
     98  CE3       32.8810   75.5320   67.2750 C.ar  358  TRP358      0.0012
     99  CZ2       34.4980   76.8290   65.3420 C.ar  358  TRP358      0.0191
    100  CZ3       32.3350   76.3020   66.2320 C.ar  358  TRP358      0.0001
    101  CH2       33.1080   76.9220   65.3120 C.ar  358  TRP358      0.0015
    102  N         42.4320   77.2810   70.1510 N.3   375  GLU375     -0.1231
    103  CA        42.5380   76.7390   71.4900 C.3   375  GLU375      0.1699
    104  C         43.8980   76.1500   71.6960 C.2   375  GLU375      0.2592
    105  O         44.4640   75.5390   70.8090 O.2   375  GLU375     -0.2718
    106  CB        41.5220   75.6110   71.7140 C.3   375  GLU375      0.0402
    107  CG        40.0920   76.1040   71.9470 C.3   375  GLU375      0.1161
    108  CD        39.1720   75.0280   72.4900 C.2   375  GLU375      0.3649
    109  OE1       39.3540   74.6480   73.6370 O.co2 375  GLU375     -0.2457
    110  OE2       38.2560   74.6060   71.7880 O.co2 375  GLU375     -0.2457
    111  N         44.4210   76.2490   72.9160 N.am  376  GLU376     -0.1966
    112  CA        45.7750   75.7220   73.1860 C.3   376  GLU376      0.1733
    113  C         45.8490   74.1700   72.9670 C.2   376  GLU376      0.2617
    114  O         46.8920   73.5520   72.9100 O.2   376  GLU376     -0.2715
    115  CB        46.2150   76.1100   74.5980 C.3   376  GLU376      0.0429
    116  CG        45.2080   75.6920   75.6920 C.3   376  GLU376      0.1163
    117  CD        45.4040   74.2630   76.1670 C.2   376  GLU376      0.3649
    118  OE1       46.5610   73.9130   76.5140 O.co2 376  GLU376     -0.2457
    119  OE2       44.4050   73.4830   76.1700 O.co2 376  GLU376     -0.2457
    120  N         44.7320   73.5560   72.8220 N.am  377  SER377     -0.1950
    121  CA        44.6830   72.1130   72.5180 C.3   377  SER377      0.1924
    122  C         44.8670   71.8340   71.0110 C.2   377  SER377      0.2314
    123  O         44.1130   71.0910   70.4260 O.2   377  SER377     -0.2863
    124  CB        43.3490   71.6110   72.9000 C.3   377  SER377      0.2116
    125  OG        42.3480   72.4440   72.3380 O.3   377  SER377     -0.2180
    126  N         33.2840   74.2130   62.7280 N.3   387  GLU387     -0.1231
    127  CA        34.0900   73.2270   63.4180 C.3   387  GLU387      0.1699
    128  C         35.5380   73.6110   63.3190 C.2   387  GLU387      0.2592
    129  O         35.9030   74.5700   62.5960 O.2   387  GLU387     -0.2718
    130  CB        33.9190   71.8300   62.7550 C.3   387  GLU387      0.0402
    131  CG        32.6510   71.0710   63.2150 C.3   387  GLU387      0.1161
    132  CD        32.7480   70.3960   64.5820 C.2   387  GLU387      0.3649
    133  OE1       33.7800   70.5620   65.2810 O.co2 387  GLU387     -0.2457
    134  OE2       31.7950   69.6910   64.9430 O.co2 387  GLU387     -0.2457
    135  N         36.4450   72.9440   64.0380 N.am  388  LYS388     -0.1980
    136  CA        37.8870   73.3050   63.8540 C.3   388  LYS388      0.1596
    137  C         38.3990   72.7700   62.5070 C.2   388  LYS388      0.2287
    138  O         37.7240   71.9800   61.8150 O.2   388  LYS388     -0.2864
    139  CB        38.7920   72.7420   64.9850 C.3   388  LYS388      0.0298
    140  CG        38.7960   73.5590   66.2600 C.3   388  LYS388      0.0038
    141  CD        38.5960   72.6320   67.4470 C.3   388  LYS388      0.0206
    142  CE        39.4450   71.5290   67.3230 C.3   388  LYS388      0.1093
    143  NZ        39.0100   70.4330   68.2100 N.3   388  LYS388     -0.1314
    144  N         43.1240   74.8450   86.3480 N.3   502  ARG502     -0.1245
    145  CA        41.8480   74.2400   85.9600 C.3   502  ARG502      0.1563
    146  C         41.7150   72.8230   86.5540 C.2   502  ARG502      0.2260
    147  O         42.1750   71.8240   85.9540 O.2   502  ARG502     -0.2867
    148  CB        41.7600   74.1920   84.4610 C.3   502  ARG502      0.0307
    149  CG        40.3410   74.0710   83.9050 C.3   502  ARG502      0.0489
    150  CD        40.3350   74.5610   82.4540 C.3   502  ARG502      0.2205
    151  NE        39.2130   73.9810   81.7240 N.pl3 502  ARG502     -0.0865
    152  CZ        39.3790   72.8700   80.9930 C.cat 502  ARG502      0.5346
    153  NH1       40.5880   72.2790   80.9040 N.pl3 502  ARG502      0.1354
    154  NH2       38.3310   72.3570   80.3060 N.pl3 502  ARG502      0.1354
    155  N         45.0320   70.8380   86.0760 N.3   514  ARG514     -0.1245
    156  CA        45.6820   71.3810   84.8720 C.3   514  ARG514      0.1563
    157  C         46.2950   72.7220   85.1080 C.2   514  ARG514      0.2260
    158  O         45.5840   73.7580   85.3340 O.2   514  ARG514     -0.2867
    159  CB        44.7050   71.4080   83.7310 C.3   514  ARG514      0.0307
    160  CG        44.8280   70.1220   82.9390 C.3   514  ARG514      0.0489
    161  CD        43.8690   70.1080   81.8080 C.3   514  ARG514      0.2205
    162  NE        44.1770   68.9910   80.9150 N.pl3 514  ARG514     -0.0865
    163  CZ        43.3570   68.6950   79.8520 C.cat 514  ARG514      0.5346
    164  NH1       42.2380   69.4530   79.5970 N.pl3 514  ARG514      0.1354
    165  NH2       43.6650   67.6480   79.0540 N.pl3 514  ARG514      0.1354
@<TRIPOS>BOND
     1   138   137    2
     2   137   136    1
     3   129   128    2
     4   126   127    1
     5   130   131    1
     6   130   127    1
     7    53    52    2
     8    58    59    1
     9    69    68    2
    10    59    60    1
    11    59    62    1
    12   131   132    1
    13   128   127    1
    14   128   135   am
    15    50    51    1
    16   136   135    1
    17   136   139    1
    18    60    61    2
    19    60    66   am
    20    62    63    1
    21    52    51    1
    22    68    67    1
    23    66    67    1
    24    57    55   ar
    25   132   134   ar
    26   132   133   ar
    27    51    54    1
    28   139   140    1
    29    67    70    1
    30   101    99   ar
    31   101   100   ar
    32    99    97   ar
    33    63    65   ar
    34    63    64   ar
    35    55    54    1
    36    55    56   ar
    37    44    43    2
    38    70    71    1
    39   100    98   ar
    40   140   141    1
    41    97    96   ar
    42    97    95   ar
    43    48    49    1
    44    48    47    1
    45    96    94   ar
    46    43    42    1
    47    45    46    1
    48    45    42    1
    49    46    47    1
    50    98    95   ar
    51    71    72    1
    52   142   141    1
    53   142   143    1
    54    95    93   ar
    55    41    42    1
    56    28    27    2
    57    30    29    1
    58    26    25    1
    59    26    27    1
    60    26    29    1
    61    94    93   ar
    62    27    31   am
    63    93    92    1
    64    72    73    1
    65    31    32    1
    66    92    89    1
    67    73    74    2
    68    32    33    1
    69    32    35    1
    70   102   103    1
    71    91    90    2
    72    33    34    2
    73    35    36    1
    74   123   122    2
    75    90    89    1
    76    89    88    1
    77    74    75    1
    78    74    76    1
    79   105   104    2
    80    11    10    2
    81   122   121    1
    82    10     9    1
    83   103   104    1
    84   103   106    1
    85    37    36   ar
    86    37    39   ar
    87    24    22    1
    88    36    38   ar
    89    22    23    1
    90    22    21    2
    91    12    13    1
    92    12     9    1
    93   104   111   am
    94    21    20    1
    95   106   107    1
    96    20    19    1
    97   110   108   ar
    98     9     8    1
    99    88    86   am
   100   107   108    1
   101   125   124    1
   102     4     3    2
   103   108   109   ar
   104   121   120    1
   105   121   124    1
   106    39    40   ar
   107   120   113   am
   108    38    40   ar
   109   114   113    2
   110   111   112    1
   111   113   112    1
   112    19    18    1
   113    86    87    2
   114    86    85    1
   115     8     3   am
   116   112   115    1
   117     3     2    1
   118    14    15    1
   119    15    18    1
   120    15    16    1
   121    85    84    1
   122    16    17    2
   123   115   116    1
   124     2     5    1
   125     2     1    1
   126    84    79   am
   127     5     6    1
   128     5     7    1
   129   116   117    1
   130    79    78    1
   131    79    80    2
   132   117   119   ar
   133   117   118   ar
   134    78    81    1
   135    78    77    1
   136    82    81    1
   137    81    83    1
   138   165   163    1
   139   164   163    1
   140   163   162    2
   141   154   152    1
   142   153   152    1
   143   162   161    1
   144   152   151    2
   145   151   150    1
   146   161   160    1
   147   150   149    1
   148   160   159    1
   149   159   156    1
   150   149   148    1
   151   148   145    1
   152   156   157    1
   153   156   155    1
   154   157   158    2
   155   147   146    2
   156   145   144    1
   157   145   146    1
