@<TRIPOS>MOLECULE
tmp/1c4gA00.pdb
 152 145 0 0 0
SMALL
GASTEIGER

@<TRIPOS>ATOM
      1  N         32.0900   67.3350   76.2060 N.3    18  THR18      -0.1203
      2  CA        32.3420   68.6890   75.5950 C.3    18  THR18       0.1994
      3  C         32.1130   68.6590   74.0740 C.2    18  THR18       0.2618
      4  O         31.6810   69.6280   73.4740 O.2    18  THR18      -0.2717
      5  CB        33.7920   69.2250   75.9160 C.3    18  THR18       0.1784
      6  OG1       34.6870   68.1520   75.6090 O.3    18  THR18      -0.2211
      7  CG2       33.9240   69.6910   77.3760 C.3    18  THR18       0.0376
      8  N         32.4190   67.4970   73.4330 N.am   19  SER19      -0.1951
      9  CA        32.1470   67.3080   72.0040 C.3    19  SER19       0.1924
     10  C         31.7210   65.8640   71.6550 C.2    19  SER19       0.2314
     11  O         32.5440   64.9790   71.4670 O.2    19  SER19      -0.2863
     12  CB        33.3370   67.6620   71.1470 C.3    19  SER19       0.2116
     13  OG        32.8810   67.8870   69.8180 O.3    19  SER19      -0.2180
     14  N         31.4430   59.6740   73.6560 N.3    22  ARG22      -0.1245
     15  CA        32.5680   58.7450   73.4300 C.3    22  ARG22       0.1563
     16  C         32.7050   57.6970   74.5500 C.2    22  ARG22       0.2260
     17  O         32.7270   57.9900   75.7520 O.2    22  ARG22      -0.2867
     18  CB        33.8750   59.5260   73.3130 C.3    22  ARG22       0.0307
     19  CG        33.6970   60.8250   72.5650 C.3    22  ARG22       0.0489
     20  CD        34.8910   61.7110   72.7770 C.3    22  ARG22       0.2205
     21  NE        34.6860   62.9680   72.1040 N.pl3  22  ARG22      -0.0865
     22  CZ        35.7250   63.6820   71.6460 C.cat  22  ARG22       0.5346
     23  NH1       36.9660   63.2490   71.7990 N.pl3  22  ARG22       0.1354
     24  NH2       35.5100   64.8500   71.0370 N.pl3  22  ARG22       0.1354
     25  N         37.6230   61.5220   67.9540 N.3   116  SER116     -0.1202
     26  CA        38.6730   62.5270   67.7530 C.3   116  SER116      0.2020
     27  C         40.1010   62.0550   68.0900 C.2   116  SER116      0.2618
     28  O         40.6580   61.1610   67.4380 O.2   116  SER116     -0.2717
     29  CB        38.3980   63.7060   68.6580 C.3   116  SER116      0.2103
     30  OG        38.8360   64.8730   68.0260 O.3   116  SER116     -0.2182
     31  N         40.6520   62.7180   69.1050 N.am  117  HIS117     -0.1975
     32  CA        42.0370   62.5020   69.5770 C.3   117  HIS117      0.1656
     33  C         42.1650   61.2310   70.4100 C.2   117  HIS117      0.2291
     34  O         43.2740   60.7940   70.7480 O.2   117  HIS117     -0.2864
     35  CB        42.4850   63.6610   70.4640 C.3   117  HIS117      0.0771
     36  CG        41.7800   63.6580   71.8170 C.ar  117  HIS117      0.0820
     37  ND1       40.5470   64.2670   71.9950 N.ar  117  HIS117     -0.2267
     38  CD2       42.1250   63.1300   73.0200 C.ar  117  HIS117      0.1154
     39  CE1       40.1860   64.1010   73.2530 C.ar  117  HIS117      0.1986
     40  NE2       41.1160   63.4240   73.8780 N.ar  117  HIS117     -0.2212
     41  N         29.6090   62.1080   67.1340 N.3   129  LYS129     -0.1245
     42  CA        29.4130   63.5930   67.1710 C.3   129  LYS129      0.1561
     43  C         28.1170   63.9950   66.4390 C.2   129  LYS129      0.2260
     44  O         27.7660   63.4110   65.4360 O.2   129  LYS129     -0.2867
     45  CB        30.5400   64.3060   66.4650 C.3   129  LYS129      0.0271
     46  CG        31.8170   64.4550   67.2500 C.3   129  LYS129      0.0035
     47  CD        32.7480   65.3410   66.4320 C.3   129  LYS129      0.0206
     48  CE        33.8860   65.8850   67.2510 C.3   129  LYS129      0.1093
     49  NZ        35.0590   65.1410   66.9870 N.3   129  LYS129     -0.1314
     50  N         42.1840   69.0560   63.9860 N.3   292  ARG292     -0.1245
     51  CA        43.2900   69.6680   64.7520 C.3   292  ARG292      0.1563
     52  C         44.6110   69.6190   63.9360 C.2   292  ARG292      0.2260
     53  O         44.8840   68.6360   63.2160 O.2   292  ARG292     -0.2867
     54  CB        43.6080   68.8960   66.0110 C.3   292  ARG292      0.0307
     55  CG        42.5940   68.8190   67.1080 C.3   292  ARG292      0.0489
     56  CD        43.3070   68.0070   68.1840 C.3   292  ARG292      0.2205
     57  NE        42.5440   67.8300   69.3740 N.pl3 292  ARG292     -0.0865
     58  CZ        43.1600   67.4920   70.5080 C.cat 292  ARG292      0.5346
     59  NH1       44.4910   67.3360   70.5300 N.pl3 292  ARG292      0.1354
     60  NH2       42.4480   67.2860   71.6230 N.pl3 292  ARG292      0.1354
     61  N         36.4720   76.1310   77.2510 N.3   356  THR356     -0.1203
     62  CA        37.0920   75.1600   76.3210 C.3   356  THR356      0.1994
     63  C         35.9900   74.2680   75.6530 C.2   356  THR356      0.2618
     64  O         35.2140   73.5620   76.3200 O.2   356  THR356     -0.2717
     65  CB        38.1750   74.3550   77.0690 C.3   356  THR356      0.1784
     66  OG1       37.9530   72.9640   76.9230 O.3   356  THR356     -0.2211
     67  CG2       38.2370   74.6720   78.5700 C.3   356  THR356      0.0376
     68  N         35.9580   74.3540   74.3110 N.am  357  GLY357     -0.1942
     69  CA        34.9930   73.6140   73.4510 C.3   357  GLY357      0.2014
     70  C         34.5950   74.4690   72.2180 C.2   357  GLY357      0.2638
     71  O         34.3340   75.6750   72.3200 O.2   357  GLY357     -0.2714
     72  N         34.5450   73.8230   71.0520 N.am  358  TRP358     -0.1973
     73  CA        34.2010   74.5120   69.7810 C.3   358  TRP358      0.1640
     74  C         32.7250   74.7600   69.6690 C.2   358  TRP358      0.2290
     75  O         32.2770   75.4770   68.8040 O.2   358  TRP358     -0.2864
     76  CB        34.6440   73.6960   68.5870 C.3   358  TRP358      0.0576
     77  CG        35.9740   74.1950   68.1240 C.ar  358  TRP358      0.0006
     78  CD1       37.1460   73.8600   68.6380 C.ar  358  TRP358      0.0946
     79  CD2       36.1540   75.1090   67.0780 C.ar  358  TRP358      0.0152
     80  NE1       38.1180   74.6140   67.9420 N.ar  358  TRP358     -0.2442
     81  CE2       37.5160   75.3600   67.0350 C.ar  358  TRP358      0.0810
     82  CE3       35.3010   75.7680   66.1820 C.ar  358  TRP358      0.0012
     83  CZ2       38.0930   76.2790   66.1620 C.ar  358  TRP358      0.0191
     84  CZ3       35.8920   76.6790   65.2860 C.ar  358  TRP358      0.0001
     85  CH2       37.2260   76.9260   65.2820 C.ar  358  TRP358      0.0015
     86  N         42.2050   77.0640   69.8540 N.3   375  GLU375     -0.1231
     87  CA        42.5950   76.7640   71.2410 C.3   375  GLU375      0.1699
     88  C         43.9400   76.0280   71.3960 C.2   375  GLU375      0.2592
     89  O         44.5200   75.5040   70.4760 O.2   375  GLU375     -0.2718
     90  CB        41.4870   75.9700   71.9730 C.3   375  GLU375      0.0402
     91  CG        40.3830   75.4820   71.0590 C.3   375  GLU375      0.1161
     92  CD        39.2760   74.7050   71.7770 C.2   375  GLU375      0.3649
     93  OE1       38.6720   73.8470   71.1550 O.co2 375  GLU375     -0.2457
     94  OE2       39.0170   74.9280   72.9490 O.co2 375  GLU375     -0.2457
     95  N         44.4160   75.9230   72.6180 N.am  376  GLU376     -0.1966
     96  CA        45.6900   75.2800   72.8800 C.3   376  GLU376      0.1733
     97  C         45.7050   73.8120   72.5360 C.2   376  GLU376      0.2617
     98  O         46.7520   73.2100   72.3480 O.2   376  GLU376     -0.2715
     99  CB        46.0770   75.4710   74.3610 C.3   376  GLU376      0.0429
    100  CG        44.9940   75.0710   75.4130 C.3   376  GLU376      0.1163
    101  CD        44.7370   73.5460   75.5770 C.2   376  GLU376      0.3649
    102  OE1       45.6780   72.7220   75.4340 O.co2 376  GLU376     -0.2457
    103  OE2       43.5970   73.1920   75.8350 O.co2 376  GLU376     -0.2457
    104  N         44.5360   73.2020   72.4770 N.am  377  SER377     -0.1950
    105  CA        44.4280   71.7930   72.1280 C.3   377  SER377      0.1924
    106  C         44.6240   71.5700   70.6190 C.2   377  SER377      0.2314
    107  O         43.8980   70.8240   70.0010 O.2   377  SER377     -0.2863
    108  CB        43.0520   71.2880   72.5250 C.3   377  SER377      0.2116
    109  OG        42.0390   72.1100   71.9580 O.3   377  SER377     -0.2180
    110  N         36.3220   72.9190   63.6280 N.3   388  LYS388     -0.1245
    111  CA        37.7580   73.2420   63.6090 C.3   388  LYS388      0.1561
    112  C         38.3410   72.5980   62.3260 C.2   388  LYS388      0.2260
    113  O         37.7630   71.6850   61.7330 O.2   388  LYS388     -0.2867
    114  CB        38.5180   72.8370   64.9020 C.3   388  LYS388      0.0271
    115  CG        37.8510   71.8650   65.8790 C.3   388  LYS388      0.0035
    116  CD        38.8530   71.4940   66.9940 C.3   388  LYS388      0.0206
    117  CE        38.2430   70.8180   68.2150 C.3   388  LYS388      0.1093
    118  NZ        39.1640   69.8450   68.8200 N.3   388  LYS388     -0.1314
    119  N         43.0390   73.5200   87.4870 N.3   502  ARG502     -0.1245
    120  CA        41.7910   72.7960   87.0640 C.3   502  ARG502      0.1563
    121  C         41.2140   71.5860   87.9900 C.2   502  ARG502      0.2260
    122  O         41.7520   70.4410   88.1140 O.2   502  ARG502     -0.2867
    123  CB        41.8760   72.3790   85.5540 C.3   502  ARG502      0.0307
    124  CG        40.9110   73.1840   84.6830 C.3   502  ARG502      0.0489
    125  CD        40.6960   72.4950   83.3120 C.3   502  ARG502      0.2205
    126  NE        39.6500   73.1990   82.5760 N.pl3 502  ARG502     -0.0865
    127  CZ        39.2290   72.8040   81.3550 C.cat 502  ARG502      0.5346
    128  NH1       39.7700   71.7540   80.7150 N.pl3 502  ARG502      0.1354
    129  NH2       38.1980   73.4030   80.8240 N.pl3 502  ARG502      0.1354
    130  N         44.4830   68.8520   85.2190 N.3   514  ARG514     -0.1245
    131  CA        45.0150   69.2990   83.8810 C.3   514  ARG514      0.1563
    132  C         45.5040   70.7840   83.9610 C.2   514  ARG514      0.2260
    133  O         44.7230   71.7540   84.0760 O.2   514  ARG514     -0.2867
    134  CB        43.9360   69.1370   82.8000 C.3   514  ARG514      0.0307
    135  CG        44.4640   69.3670   81.4060 C.3   514  ARG514      0.0489
    136  CD        43.9550   68.2760   80.4890 C.3   514  ARG514      0.2205
    137  NE        42.8540   68.7320   79.6690 N.pl3 514  ARG514     -0.0865
    138  CZ        42.4460   68.0140   78.5910 C.cat 514  ARG514      0.5346
    139  NH1       43.0320   66.8370   78.2490 N.pl3 514  ARG514      0.1354
    140  NH2       41.4880   68.4950   77.8390 N.pl3 514  ARG514      0.1354
    141  N         47.1400   74.2750   82.8830 N.3   516  TYR516     -0.1241
    142  CA        47.4250   75.2180   81.8040 C.3   516  TYR516      0.1605
    143  C         48.1900   76.4770   82.3820 C.2   516  TYR516      0.2264
    144  O         47.6170   77.2850   83.1040 O.2   516  TYR516     -0.2867
    145  CB        46.1230   75.6650   81.1850 C.3   516  TYR516      0.0534
    146  CG        45.2670   74.5170   80.6870 C.ar  516  TYR516     -0.0201
    147  CD1       45.6610   73.7630   79.5610 C.ar  516  TYR516     -0.0009
    148  CD2       44.0790   74.2220   81.3360 C.ar  516  TYR516     -0.0009
    149  CE1       44.8510   72.7190   79.1060 C.ar  516  TYR516      0.0417
    150  CE2       43.2740   73.1820   80.8740 C.ar  516  TYR516      0.0417
    151  CZ        43.6640   72.4480   79.7760 C.ar  516  TYR516      0.1957
    152  OH        42.8550   71.4270   79.3580 O.3   516  TYR516     -0.2866
@<TRIPOS>BOND
     1   113   112    2
     2   112   111    1
     3    53    52    2
     4   111   110    1
     5   111   114    1
     6    52    51    1
     7    50    51    1
     8    51    54    1
     9   114   115    1
    10    85    84   ar
    11    85    83   ar
    12    84    82   ar
    13    44    43    2
    14   115   116    1
    15    54    55    1
    16    83    81   ar
    17    82    79   ar
    18    47    46    1
    19    47    48    1
    20    43    42    1
    21    45    42    1
    22    45    46    1
    23    49    48    1
    24   116   117    1
    25    81    79   ar
    26    81    80   ar
    27    79    77   ar
    28    55    56    1
    29    41    42    1
    30    28    27    2
    31    26    25    1
    32    26    27    1
    33    26    29    1
    34    80    78   ar
    35    30    29    1
    36    27    31   am
    37    77    76    1
    38    77    78   ar
    39    56    57    1
    40   117   118    1
    41    76    73    1
    42    75    74    2
    43    31    32    1
    44    57    58    2
    45    32    33    1
    46    32    35    1
    47    74    73    1
    48    73    72    1
    49    13    12    1
    50    86    87    1
    51   107   106    2
    52    33    34    2
    53    35    36    1
    54    89    88    2
    55    58    59    1
    56    58    60    1
    57   106   105    1
    58    24    22    1
    59    72    70   am
    60    91    92    1
    61    91    90    1
    62    12     9    1
    63    93    92   ar
    64    87    88    1
    65    87    90    1
    66    88    95   am
    67    11    10    2
    68    22    23    1
    69    22    21    2
    70    10     9    1
    71    92    94   ar
    72    36    37   ar
    73    36    38   ar
    74   109   108    1
    75    37    39   ar
    76     9     8    1
    77    21    20    1
    78   105   104    1
    79   105   108    1
    80    70    71    2
    81    70    69    1
    82    98    97    2
    83   104    97   am
    84    97    96    1
    85    19    20    1
    86    19    18    1
    87    95    96    1
    88    96    99    1
    89    38    40   ar
    90    39    40   ar
    91    18    15    1
    92    15    14    1
    93    15    16    1
    94     8     3   am
    95    69    68    1
    96     4     3    2
    97     3     2    1
    98    68    63   am
    99    99   100    1
   100    16    17    2
   101   100   101    1
   102   102   101   ar
   103   101   103   ar
   104     2     5    1
   105     2     1    1
   106     6     5    1
   107    63    64    2
   108    63    62    1
   109     5     7    1
   110    62    65    1
   111    62    61    1
   112    66    65    1
   113    65    67    1
   114   140   138    1
   115   139   138    1
   116   138   137    2
   117   149   147   ar
   118   149   151   ar
   119   152   151    1
   120   147   146   ar
   121   137   136    1
   122   151   150   ar
   123   136   135    1
   124   146   145    1
   125   146   148   ar
   126   128   127    1
   127   129   127    1
   128   150   148   ar
   129   145   142    1
   130   127   126    2
   131   135   134    1
   132   142   143    1
   133   142   141    1
   134   143   144    2
   135   126   125    1
   136   134   131    1
   137   125   124    1
   138   131   132    1
   139   131   130    1
   140   132   133    2
   141   124   123    1
   142   123   120    1
   143   120   119    1
   144   120   121    1
   145   121   122    2
