@<TRIPOS>MOLECULE
tmp/1c4kA01.pdb
 161 156 0 0 0
SMALL
GASTEIGER

@<TRIPOS>ATOM
      1  N         91.7100   30.7170   60.8710 N.3   168  ILE168     -0.1231
      2  CA        91.4830   29.7190   61.9190 C.3   168  ILE168      0.1692
      3  C         90.0600   29.8600   62.4810 C.2   168  ILE168      0.2592
      4  O         89.7950   29.5020   63.6190 O.2   168  ILE168     -0.2718
      5  CB        92.5480   29.7140   63.0650 C.3   168  ILE168      0.0266
      6  CG1       92.4870   30.9940   63.9050 C.3   168  ILE168      0.0019
      7  CG2       93.9290   29.4760   62.4770 C.3   168  ILE168      0.0020
      8  CD1       93.3110   30.9280   65.1540 C.3   168  ILE168      0.0001
      9  N         89.2140   30.5180   61.6860 N.am  169  HIS169     -0.1962
     10  CA        87.7930   30.7870   61.9490 C.3   169  HIS169      0.1787
     11  C         87.2920   31.2510   63.3190 C.2   169  HIS169      0.2620
     12  O         86.6440   30.5040   64.0560 O.2   169  HIS169     -0.2715
     13  CB        86.9760   29.5710   61.4710 C.3   169  HIS169      0.0785
     14  CG        87.4220   29.0350   60.1520 C.ar  169  HIS169      0.0821
     15  ND1       87.2570   29.7380   58.9740 N.ar  169  HIS169     -0.2267
     16  CD2       88.0860   27.9060   59.8240 C.ar  169  HIS169      0.1154
     17  CE1       87.8040   29.0660   57.9860 C.ar  169  HIS169      0.1986
     18  NE2       88.3160   27.9460   58.4720 N.ar  169  HIS169     -0.2212
     19  N         87.4660   32.5400   63.5890 N.am  170  GLU170     -0.1977
     20  CA        87.0340   33.1130   64.8540 C.3   170  GLU170      0.1602
     21  C         86.2840   34.4260   64.6820 C.2   170  GLU170      0.2287
     22  O         86.3720   35.0540   63.6380 O.2   170  GLU170     -0.2864
     23  CB        88.2350   33.3050   65.7750 C.3   170  GLU170      0.0415
     24  CG        88.4810   32.1160   66.6850 C.3   170  GLU170      0.1163
     25  CD        89.9380   31.9320   67.0880 C.2   170  GLU170      0.3649
     26  OE1       90.7940   32.7990   66.7840 O.co2 170  GLU170     -0.2457
     27  OE2       90.2320   30.8890   67.7140 O.co2 170  GLU170     -0.2457
     28  N         83.5110   33.3750   61.6030 N.3   174  VAL174     -0.1245
     29  CA        82.9840   32.0140   61.7550 C.3   174  VAL174      0.1561
     30  C         81.4690   32.0540   61.9670 C.2   174  VAL174      0.2260
     31  O         80.7940   31.0560   61.7310 O.2   174  VAL174     -0.2867
     32  CB        83.6850   31.2430   62.9230 C.3   174  VAL174      0.0252
     33  CG1       83.4260   31.9040   64.2410 C.3   174  VAL174      0.0019
     34  CG2       83.2690   29.8080   62.9540 C.3   174  VAL174      0.0019
     35  N         79.9910   31.8810   58.5540 N.3   177  GLU177     -0.1231
     36  CA        80.0950   30.5090   58.0260 C.3   177  GLU177      0.1699
     37  C         79.1690   29.5140   58.7410 C.2   177  GLU177      0.2592
     38  O         78.7690   28.5040   58.1440 O.2   177  GLU177     -0.2718
     39  CB        81.5330   30.0060   58.1020 C.3   177  GLU177      0.0402
     40  CG        82.5120   30.7850   57.2850 C.3   177  GLU177      0.1161
     41  CD        83.9220   30.2430   57.3970 C.2   177  GLU177      0.3649
     42  OE1       84.5180   30.3600   58.4820 O.co2 177  GLU177     -0.2457
     43  OE2       84.4470   29.7130   56.3980 O.co2 177  GLU177     -0.2457
     44  N         78.8770   29.7660   60.0210 N.am  178  LYS178     -0.1980
     45  CA        77.9960   28.8840   60.7920 C.3   178  LYS178      0.1596
     46  C         76.5680   29.1780   60.3920 C.2   178  LYS178      0.2287
     47  O         75.7210   28.3070   60.4960 O.2   178  LYS178     -0.2864
     48  CB        78.1890   29.0450   62.2920 C.3   178  LYS178      0.0298
     49  CG        79.3920   28.3100   62.8620 C.3   178  LYS178      0.0038
     50  CD        79.7850   28.8590   64.2260 C.3   178  LYS178      0.0206
     51  CE        79.7410   27.7950   65.2980 C.3   178  LYS178      0.1093
     52  NZ        78.3830   27.1700   65.3890 N.3   178  LYS178     -0.1314
     53  N         76.0700   27.5120   56.9790 N.3   181  ALA181     -0.1231
     54  CA        76.0120   26.0870   57.2280 C.3   181  ALA181      0.1694
     55  C         74.6180   25.6710   57.6440 C.2   181  ALA181      0.2591
     56  O         74.2700   24.5170   57.4460 O.2   181  ALA181     -0.2718
     57  CB        76.9910   25.7110   58.2880 C.3   181  ALA181      0.0304
     58  N         73.8240   26.5790   58.2150 N.am  182  ARG182     -0.1980
     59  CA        72.4550   26.2510   58.6450 C.3   182  ARG182      0.1597
     60  C         71.5230   26.4160   57.4700 C.2   182  ARG182      0.2287
     61  O         70.5230   25.7210   57.3580 O.2   182  ARG182     -0.2864
     62  CB        71.9470   27.1830   59.7560 C.3   182  ARG182      0.0334
     63  CG        72.8810   27.4090   60.9360 C.3   182  ARG182      0.0492
     64  CD        73.2160   26.1280   61.7300 C.3   182  ARG182      0.2205
     65  NE        74.2900   26.3720   62.6990 N.pl3 182  ARG182     -0.0865
     66  CZ        75.4400   25.6940   62.7530 C.cat 182  ARG182      0.5346
     67  NH1       75.6850   24.7020   61.8970 N.pl3 182  ARG182      0.1354
     68  NH2       76.3720   26.0430   63.6430 N.pl3 182  ARG182      0.1354
     69  N         77.1170   20.4810   57.9360 N.3   187  ASP187     -0.1225
     70  CA        77.8060   20.4840   59.2220 C.3   187  ASP187      0.1805
     71  C         78.6530   21.7260   59.3200 C.2   187  ASP187      0.2598
     72  O         78.4640   22.5100   60.2320 O.2   187  ASP187     -0.2718
     73  CB        78.6950   19.2640   59.3760 C.3   187  ASP187      0.1424
     74  CG        77.9330   17.9670   59.2480 C.2   187  ASP187      0.3668
     75  OD1       76.7360   17.8980   59.5880 O.co2 187  ASP187     -0.2456
     76  OD2       78.5470   16.9830   58.8060 O.co2 187  ASP187     -0.2456
     77  N         79.5580   21.9150   58.3640 N.am  188  LYS188     -0.1966
     78  CA        80.4320   23.0830   58.3460 C.3   188  LYS188      0.1728
     79  C         80.5540   23.6720   56.9500 C.2   188  LYS188      0.2617
     80  O         80.5060   22.9440   55.9650 O.2   188  LYS188     -0.2715
     81  CB        81.8270   22.7350   58.8550 C.3   188  LYS188      0.0311
     82  CG        81.9470   22.6640   60.3710 C.3   188  LYS188      0.0038
     83  CD        83.4040   22.5030   60.8220 C.3   188  LYS188      0.0206
     84  CE        83.4940   22.3950   62.3260 C.3   188  LYS188      0.1093
     85  NZ        82.5930   21.3090   62.8020 N.3   188  LYS188     -0.1314
     86  N         80.7280   24.9940   56.8930 N.am  189  THR189     -0.1937
     87  CA        80.8740   25.7290   55.6470 C.3   189  THR189      0.2028
     88  C         82.1830   26.5110   55.6120 C.2   189  THR189      0.2642
     89  O         82.4790   27.2920   56.5240 O.2   189  THR189     -0.2714
     90  CB        79.7130   26.6860   55.4290 C.3   189  THR189      0.1808
     91  OG1       78.5160   25.9330   55.2390 O.3   189  THR189     -0.2208
     92  CG2       79.9240   27.5470   54.1780 C.3   189  THR189      0.0379
     93  N         82.9350   26.3430   54.5220 N.am  190  TYR190     -0.1973
     94  CA        84.2070   27.0200   54.3220 C.3   190  TYR190      0.1639
     95  C         84.0820   28.0330   53.1810 C.2   190  TYR190      0.2290
     96  O         83.6420   27.6760   52.0840 O.2   190  TYR190     -0.2864
     97  CB        85.2990   26.0040   54.0050 C.3   190  TYR190      0.0560
     98  CG        85.4960   25.0130   55.1240 C.ar  190  TYR190     -0.0198
     99  CD1       84.6230   23.9180   55.2840 C.ar  190  TYR190     -0.0009
    100  CD2       86.5350   25.1810   56.0590 C.ar  190  TYR190     -0.0009
    101  CE1       84.7790   23.0100   56.3610 C.ar  190  TYR190      0.0417
    102  CE2       86.7080   24.2910   57.1350 C.ar  190  TYR190      0.0417
    103  CZ        85.8350   23.2100   57.2800 C.ar  190  TYR190      0.1957
    104  OH        86.0370   22.3260   58.3250 O.3   190  TYR190     -0.2866
    105  N         80.3880   20.9320   54.0410 N.3   366  LYS366     -0.1245
    106  CA        80.8060   19.6200   54.5140 C.3   366  LYS366      0.1561
    107  C         79.6800   18.9370   55.2480 C.2   366  LYS366      0.2260
    108  O         79.1550   19.4830   56.2010 O.2   366  LYS366     -0.2867
    109  CB        82.0160   19.8060   55.4320 C.3   366  LYS366      0.0271
    110  CG        82.9780   18.6460   55.4880 C.3   366  LYS366      0.0035
    111  CD        84.3370   19.1380   55.9500 C.3   366  LYS366      0.0206
    112  CE        85.2320   17.9950   56.3610 C.3   366  LYS366      0.1093
    113  NZ        84.7790   17.3990   57.6460 N.3   366  LYS366     -0.1314
    114  N         81.5300   10.1870   61.7460 N.3   372  LYS372     -0.1245
    115  CA        82.4770   10.7750   62.7090 C.3   372  LYS372      0.1561
    116  C         83.4980    9.9280   63.4860 C.2   372  LYS372      0.2260
    117  O         84.6050   10.3960   63.7560 O.2   372  LYS372     -0.2867
    118  CB        81.7090   11.6660   63.7000 C.3   372  LYS372      0.0271
    119  CG        82.3910   12.9910   64.0980 C.3   372  LYS372      0.0035
    120  CD        83.2890   12.8530   65.3150 C.3   372  LYS372      0.0206
    121  CE        84.0080   14.1640   65.6520 C.3   372  LYS372      0.1093
    122  NZ        83.1280   15.2290   66.2050 N.3   372  LYS372     -0.1314
    123  N         87.1260    9.3170   58.2040 N.3   377  TYR377     -0.1241
    124  CA        86.6550   10.6690   58.4860 C.3   377  TYR377      0.1605
    125  C         87.7520   11.7020   58.4290 C.2   377  TYR377      0.2264
    126  O         88.8780   11.4490   58.8100 O.2   377  TYR377     -0.2867
    127  CB        85.9690   10.6890   59.8400 C.3   377  TYR377      0.0534
    128  CG        85.3460   12.0210   60.2470 C.ar  377  TYR377     -0.0201
    129  CD1       84.2220   12.5380   59.5760 C.ar  377  TYR377     -0.0009
    130  CD2       85.8550   12.7490   61.3460 C.ar  377  TYR377     -0.0009
    131  CE1       83.6290   13.7320   59.9930 C.ar  377  TYR377      0.0417
    132  CE2       85.2670   13.9330   61.7570 C.ar  377  TYR377      0.0417
    133  CZ        84.1580   14.4150   61.0770 C.ar  377  TYR377      0.1957
    134  OH        83.5790   15.5950   61.4990 O.3   377  TYR377     -0.2866
    135  N         88.3360   15.2480   59.8570 N.3   379  ASP379     -0.1225
    136  CA        87.8830   16.2830   60.7890 C.3   379  ASP379      0.1805
    137  C         88.2770   17.7150   60.4350 C.2   379  ASP379      0.2598
    138  O         89.1430   17.9330   59.5960 O.2   379  ASP379     -0.2718
    139  CB        88.3340   15.9400   62.2270 C.3   379  ASP379      0.1424
    140  CG        89.8610   15.7880   62.3770 C.2   379  ASP379      0.3668
    141  OD1       90.6300   16.5380   61.7440 O.co2 379  ASP379     -0.2456
    142  OD2       90.2980   14.9240   63.1650 O.co2 379  ASP379     -0.2456
    143  N         87.7140   18.6750   61.1640 N.am  380  HIS380     -0.1961
    144  CA        87.9950   20.0840   60.9430 C.3   380  HIS380      0.1787
    145  C         89.4970   20.4240   60.9690 C.2   380  HIS380      0.2620
    146  O         89.9240   21.3030   60.2430 O.2   380  HIS380     -0.2715
    147  CB        87.2310   20.9530   61.9570 C.3   380  HIS380      0.0785
    148  CG        87.4720   22.4220   61.8080 C.ar  380  HIS380      0.0821
    149  ND1       86.9570   23.1600   60.7600 N.ar  380  HIS380     -0.2267
    150  CD2       88.1980   23.2920   62.5530 C.ar  380  HIS380      0.1154
    151  CE1       87.3550   24.4130   60.8610 C.ar  380  HIS380      0.1986
    152  NE2       88.1100   24.5210   61.9430 N.ar  380  HIS380     -0.2212
    153  N         90.2910   19.7450   61.7910 N.am  381  LYS381     -0.1977
    154  CA        91.7160   20.0300   61.8450 C.3   381  LYS381      0.1596
    155  C         92.3610   19.6690   60.5070 C.2   381  LYS381      0.2287
    156  O         93.0810   20.4700   59.9130 O.2   381  LYS381     -0.2864
    157  CB        92.3800   19.3100   63.0230 C.3   381  LYS381      0.0298
    158  CG        91.7030   19.6580   64.3350 C.3   381  LYS381      0.0038
    159  CD        92.2790   18.9150   65.5390 C.3   381  LYS381      0.0206
    160  CE        91.2730   18.8680   66.7220 C.3   381  LYS381      0.1093
    161  NZ        90.9140   20.2020   67.3020 N.3   381  LYS381     -0.1314
@<TRIPOS>BOND
     1    96    95    2
     2    95    94    1
     3    97    94    1
     4    97    98    1
     5   105   106    1
     6    92    90    1
     7    94    93    1
     8   106   107    1
     9   106   109    1
    10    93    88   am
    11    98    99   ar
    12    98   100   ar
    13    91    90    1
    14   107   108    2
    15    99   101   ar
    16    90    87    1
    17   109   110    1
    18   110   111    1
    19    88    87    1
    20    88    89    2
    21    87    86    1
    22   111   112    1
    23    80    79    2
    24   100   102   ar
    25   101   103   ar
    26   112   113    1
    27    43    41   ar
    28    86    79   am
    29    79    78    1
    30    53    54    1
    31   102   103   ar
    32    54    55    1
    33    54    57    1
    34   103   104    1
    35    40    41    1
    36    40    39    1
    37    61    60    2
    38    41    42   ar
    39    56    55    2
    40    60    59    1
    41    55    58   am
    42    69    70    1
    43    17    18   ar
    44    17    15   ar
    45    36    39    1
    46    36    35    1
    47    36    37    1
    48    38    37    2
    49   123   124    1
    50    58    59    1
    51    78    77    1
    52    78    81    1
    53    77    71   am
    54   125   124    1
    55   125   126    2
    56    18    16   ar
    57   124   127    1
    58    59    62    1
    59    37    44   am
    60    76    74   ar
    61    81    82    1
    62    15    14   ar
    63    70    71    1
    64    70    73    1
    65    74    73    1
    66    74    75   ar
    67    71    72    2
    68   129   131   ar
    69   129   128   ar
    70   138   137    2
    71    62    63    1
    72    16    14   ar
    73   127   128    1
    74   135   136    1
    75   156   155    2
    76   131   133   ar
    77    44    45    1
    78    14    13    1
    79   146   145    2
    80   128   130   ar
    81    82    83    1
    82    46    47    2
    83    46    45    1
    84   137   136    1
    85   137   143   am
    86   155   154    1
    87   149   151   ar
    88   149   148   ar
    89   136   139    1
    90    45    48    1
    91    83    84    1
    92   151   152   ar
    93     1     2    1
    94    63    64    1
    95   144   145    1
    96   144   143    1
    97   144   147    1
    98   145   153   am
    99   133   134    1
   100   133   132   ar
   101   130   132   ar
   102    13    10    1
   103    28    29    1
   104     9    10    1
   105     9     3   am
   106    64    65    1
   107    31    30    2
   108   141   140   ar
   109   114   115    1
   110    29    30    1
   111    29    32    1
   112   153   154    1
   113   148   147    1
   114   148   150   ar
   115   154   157    1
   116    67    66    1
   117     2     3    1
   118     2     5    1
   119   152   150   ar
   120    10    11    1
   121   139   140    1
   122    48    49    1
   123    84    85    1
   124   140   142   ar
   125     7     5    1
   126     3     4    2
   127    65    66    2
   128   115   116    1
   129   115   118    1
   130    66    68    1
   131    49    50    1
   132    32    34    1
   133    32    33    1
   134   157   158    1
   135     5     6    1
   136    11    19   am
   137    11    12    2
   138   116   117    2
   139    19    20    1
   140    22    21    2
   141   118   119    1
   142     6     8    1
   143   119   120    1
   144    50    51    1
   145   158   159    1
   146    21    20    1
   147    20    23    1
   148    51    52    1
   149   120   121    1
   150   159   160    1
   151   121   122    1
   152    23    24    1
   153    24    25    1
   154   160   161    1
   155    26    25   ar
   156    25    27   ar
