@<TRIPOS>MOLECULE
tmp/1c4oA00.pdb
 115 108 0 0 0
SMALL
GASTEIGER

@<TRIPOS>ATOM
      1  N         -8.6440   80.4560   13.0370 N.3    34  LEU34      -0.1245
      2  CA        -8.1510   79.5830   14.1070 C.3    34  LEU34       0.1561
      3  C         -7.7070   80.5770   15.1660 C.2    34  LEU34       0.2260
      4  O         -6.6300   81.1800   15.0760 O.2    34  LEU34      -0.2867
      5  CB        -6.9840   78.7240   13.5760 C.3    34  LEU34       0.0270
      6  CG        -6.5920   77.5090   14.4500 C.3    34  LEU34       0.0019
      7  CD1       -5.6400   76.5860   13.6610 C.3    34  LEU34       0.0001
      8  CD2       -5.9540   77.9710   15.7240 C.3    34  LEU34       0.0001
      9  N        -10.7710   77.3910   18.1360 N.3   310  ALA310     -0.1231
     10  CA        -9.3770   77.3070   18.6310 C.3   310  ALA310      0.1694
     11  C         -8.8110   75.9410   18.2370 C.2   310  ALA310      0.2593
     12  O         -7.5850   75.7310   18.2740 O.2   310  ALA310     -0.2718
     13  CB        -9.3260   77.4670   20.1540 C.3   310  ALA310      0.0304
     14  N         -9.6770   75.0040   17.8480 N.am  311  THR311     -0.1940
     15  CA        -9.2610   73.6540   17.4920 C.3   311  THR311      0.2013
     16  C        -10.1650   73.1740   16.3330 C.2   311  THR311      0.2484
     17  O        -10.9710   72.2680   16.4980 O.2   311  THR311     -0.2729
     18  CB        -9.4640   72.6460   18.6960 C.3   311  THR311      0.1807
     19  OG1      -10.8330   72.6810   19.1730 O.3   311  THR311     -0.2208
     20  CG2       -8.5670   72.9990   19.8540 C.3   311  THR311      0.0379
     21  N         -9.9840   73.7180   15.1360 N.am  312  PRO312     -0.2726
     22  CA       -10.8080   73.3510   13.9530 C.3   312  PRO312      0.1402
     23  C        -10.8930   71.8520   13.7280 C.2   312  PRO312      0.2269
     24  O         -9.8920   71.1580   13.8650 O.2   312  PRO312     -0.2865
     25  CB       -10.1120   74.0700   12.7880 C.3   312  PRO312      0.0296
     26  CG        -9.3230   75.1540   13.4190 C.3   312  PRO312      0.0237
     27  CD        -8.8970   74.6460   14.7940 C.3   312  PRO312      0.0939
     28  N        -12.0710   68.1970   11.5000 N.3   314  PRO314     -0.2116
     29  CA       -11.6720   67.6210   10.2280 C.3   314  PRO314      0.1372
     30  C        -12.3080   68.2370    8.9940 C.2   314  PRO314      0.2244
     31  O        -11.6300   68.4090    7.9680 O.2   314  PRO314     -0.2868
     32  CB       -11.9820   66.1380   10.3870 C.3   314  PRO314      0.0268
     33  CG       -13.0390   66.0990   11.4530 C.3   314  PRO314      0.0207
     34  CD       -12.6450   67.1920   12.4120 C.3   314  PRO314      0.0892
     35  N        -10.5890   71.5850    8.3120 N.3   317  LEU317     -0.1231
     36  CA        -9.2070   71.4430    7.8630 C.3   317  LEU317      0.1693
     37  C         -9.0620   70.8620    6.4610 C.2   317  LEU317      0.2591
     38  O         -8.0610   71.1220    5.7750 O.2   317  LEU317     -0.2718
     39  CB        -8.4150   70.6020    8.8640 C.3   317  LEU317      0.0284
     40  CG        -8.2210   71.2690   10.2350 C.3   317  LEU317      0.0019
     41  CD1       -7.5260   70.2990   11.1650 C.3   317  LEU317      0.0001
     42  CD2       -7.4570   72.6370   10.1120 C.3   317  LEU317      0.0001
     43  N        -10.0230   70.0440    6.0360 N.am  318  ALA318     -0.1980
     44  CA        -9.9620   69.4560    4.6970 C.3   318  ALA318      0.1597
     45  C        -10.4500   70.4130    3.5960 C.2   318  ALA318      0.2287
     46  O         -9.9010   70.4330    2.4930 O.2   318  ALA318     -0.2864
     47  CB       -10.8010   68.1760    4.6460 C.3   318  ALA318      0.0319
     48  N         -4.7150   82.5130   11.4830 N.3   325  GLU325     -0.1245
     49  CA        -4.5480   82.3640   12.9290 C.3   325  GLU325      0.1567
     50  C         -4.5700   83.6770   13.6810 C.2   325  GLU325      0.2260
     51  O         -4.0750   84.7020   13.2050 O.2   325  GLU325     -0.2867
     52  CB        -3.1920   81.7400   13.2930 C.3   325  GLU325      0.0388
     53  CG        -2.9320   80.3410   12.9150 C.3   325  GLU325      0.1160
     54  CD        -1.8830   79.6880   13.8300 C.2   325  GLU325      0.3649
     55  OE1       -0.8230   80.3050   14.1670 O.co2 325  GLU325     -0.2457
     56  OE2       -2.1250   78.5270   14.2020 O.co2 325  GLU325     -0.2457
     57  N         -6.6810   65.1730   21.5290 N.3   447  GLU447     -0.1231
     58  CA        -5.8250   66.3490   21.3520 C.3   447  GLU447      0.1699
     59  C         -6.6680   67.6360   21.4140 C.2   447  GLU447      0.2592
     60  O         -6.3230   68.5740   22.1490 O.2   447  GLU447     -0.2718
     61  CB        -5.1080   66.2310   20.0020 C.3   447  GLU447      0.0402
     62  CG        -4.2080   67.4040   19.6410 C.3   447  GLU447      0.1161
     63  CD        -3.5320   67.2000   18.2660 C.2   447  GLU447      0.3649
     64  OE1       -3.6190   66.0920   17.6920 O.co2 447  GLU447     -0.2457
     65  OE2       -2.9110   68.1450   17.7540 O.co2 447  GLU447     -0.2457
     66  N         -7.7830   67.6940   20.6730 N.am  448  ARG448     -0.1980
     67  CA        -8.6130   68.9120   20.6890 C.3   448  ARG448      0.1597
     68  C         -9.2160   69.1970   22.0690 C.2   448  ARG448      0.2287
     69  O         -9.2230   70.3450   22.5350 O.2   448  ARG448     -0.2864
     70  CB        -9.7500   68.7950   19.6590 C.3   448  ARG448      0.0334
     71  CG        -9.2360   68.7840   18.2060 C.3   448  ARG448      0.0492
     72  CD       -10.4210   68.8820   17.2410 C.3   448  ARG448      0.2205
     73  NE        -9.9710   69.0800   15.8490 N.pl3 448  ARG448     -0.0865
     74  CZ        -9.5680   68.0940   15.0580 C.cat 448  ARG448      0.5346
     75  NH1       -9.5600   66.8470   15.5220 N.pl3 448  ARG448      0.1354
     76  NH2       -9.2120   68.3270   13.7860 N.pl3 448  ARG448      0.1354
     77  N         -6.6110   70.5940   24.3620 N.3   451  ILE451     -0.1245
     78  CA        -6.2970   71.9780   24.0630 C.3   451  ILE451      0.1561
     79  C         -7.4100   72.8850   24.6090 C.2   451  ILE451      0.2260
     80  O         -7.1370   73.9220   25.2630 O.2   451  ILE451     -0.2867
     81  CB        -6.0590   72.1940   22.5640 C.3   451  ILE451      0.0252
     82  CG1       -4.7110   71.5380   22.1620 C.3   451  ILE451      0.0019
     83  CG2       -5.9700   73.7090   22.2810 C.3   451  ILE451      0.0019
     84  CD1       -4.4610   71.4820   20.6680 C.3   451  ILE451      0.0001
     85  N          1.3400   72.4380   21.3120 N.3   482  GLU482     -0.1245
     86  CA         0.5670   73.5490   20.8230 C.3   482  GLU482      0.1567
     87  C          0.4660   74.6660   21.8520 C.2   482  GLU482      0.2260
     88  O          0.5500   75.8370   21.4920 O.2   482  GLU482     -0.2867
     89  CB        -0.8220   73.0470   20.3870 C.3   482  GLU482      0.0388
     90  CG        -1.7740   74.1750   19.9280 C.3   482  GLU482      0.1160
     91  CD        -1.2370   74.9850   18.7240 C.2   482  GLU482      0.3649
     92  OE1       -0.1550   74.6670   18.1560 O.co2 482  GLU482     -0.2457
     93  OE2       -1.9200   75.9520   18.3350 O.co2 482  GLU482     -0.2457
     94  N          3.7050   76.3860   21.7860 N.3   485  ARG485     -0.1231
     95  CA         3.8450   77.2210   20.5730 C.3   485  ARG485      0.1694
     96  C          3.1490   78.5670   20.7810 C.2   485  ARG485      0.2591
     97  O          3.6900   79.6570   20.4980 O.2   485  ARG485     -0.2718
     98  CB         3.2250   76.5060   19.3580 C.3   485  ARG485      0.0321
     99  CG         3.4820   77.2700   18.0410 C.3   485  ARG485      0.0489
    100  CD         2.8010   76.5990   16.8380 C.3   485  ARG485      0.2205
    101  NE         1.3340   76.6870   16.8790 N.pl3 485  ARG485     -0.0865
    102  CZ         0.6180   77.6090   16.2450 C.cat 485  ARG485      0.5346
    103  NH1        1.2000   78.5470   15.5050 N.pl3 485  ARG485      0.1354
    104  NH2       -0.7200   77.5940   16.3480 N.pl3 485  ARG485      0.1354
    105  N          1.9390   78.4830   21.3100 N.am  486  ARG486     -0.1980
    106  CA         1.1790   79.6860   21.5390 C.3   486  ARG486      0.1597
    107  C          1.8520   80.5800   22.5870 C.2   486  ARG486      0.2287
    108  O          2.0080   81.7980   22.3740 O.2   486  ARG486     -0.2864
    109  CB        -0.2610   79.3290   21.9730 C.3   486  ARG486      0.0334
    110  CG        -1.0440   78.6610   20.8310 C.3   486  ARG486      0.0492
    111  CD        -2.4410   78.2460   21.3050 C.3   486  ARG486      0.2205
    112  NE        -3.1260   77.4960   20.2490 N.pl3 486  ARG486     -0.0865
    113  CZ        -4.4230   77.1820   20.2410 C.cat 486  ARG486      0.5346
    114  NH1       -5.2380   77.5620   21.2420 N.pl3 486  ARG486      0.1354
    115  NH2       -4.8710   76.4280   19.2430 N.pl3 486  ARG486      0.1354
@<TRIPOS>BOND
     1    46    45    2
     2    45    44    1
     3    47    44    1
     4    44    43    1
     5    38    37    2
     6    43    37   am
     7    37    36    1
     8    36    35    1
     9    36    39    1
    10    31    30    2
    11    39    40    1
    12    30    29    1
    13    42    40    1
    14    29    32    1
    15    29    28    1
    16    40    41    1
    17    32    33    1
    18    33    34    1
    19    48    49    1
    20    28    34    1
    21    25    26    1
    22    25    22    1
    23    53    52    1
    24    53    54    1
    25    49    52    1
    26    49    50    1
    27     1     2    1
    28    51    50    2
    29    26    27    1
    30     5     2    1
    31     5     6    1
    32     7     6    1
    33    23    24    2
    34    23    22    1
    35    76    74    1
    36    54    55   ar
    37    54    56   ar
    38    22    21    1
    39     2     3    1
    40     6     8    1
    41    27    21    1
    42    74    75    1
    43    74    73    2
    44     4     3    2
    45    21    16   am
    46   103   102    1
    47    73    72    1
    48   102   104    1
    49   102   101    2
    50    16    17    2
    51    16    15    1
    52   100   101    1
    53   100    99    1
    54    72    71    1
    55    15    14    1
    56    15    18    1
    57    64    63   ar
    58    65    63   ar
    59    14    11   am
    60    99    98    1
    61     9    10    1
    62    92    91   ar
    63    71    70    1
    64    11    12    2
    65    11    10    1
    66    63    62    1
    67    93    91   ar
    68    10    13    1
    69    18    19    1
    70    18    20    1
    71    91    90    1
    72   115   113    1
    73    98    95    1
    74    62    61    1
    75    70    67    1
    76    90    89    1
    77    61    58    1
    78   113   112    2
    79   113   114    1
    80   112   111    1
    81    89    86    1
    82    97    96    2
    83    95    96    1
    84    95    94    1
    85    84    82    1
    86    66    67    1
    87    66    59   am
    88    67    68    1
    89    96   105   am
    90    86    85    1
    91    86    87    1
    92   110   111    1
    93   110   109    1
    94   105   106    1
    95    58    59    1
    96    58    57    1
    97    59    60    2
    98    88    87    2
    99   106   109    1
   100   106   107    1
   101    68    69    2
   102    82    81    1
   103    83    81    1
   104   108   107    2
   105    81    78    1
   106    78    77    1
   107    78    79    1
   108    79    80    2
