@<TRIPOS>MOLECULE
tmp/1c4uB00.pdb
 159 151 0 0 0
SMALL
GASTEIGER

@<TRIPOS>ATOM
      1  N         11.6900   -0.0840   10.3050 N.3    17  MET17      -0.1245
      2  CA        11.8010   -1.5010    9.9130 C.3    17  MET17       0.1570
      3  C         13.2570   -1.6610    9.4580 C.2    17  MET17       0.2261
      4  O         13.7440   -0.7670    8.7670 O.2    17  MET17      -0.2867
      5  CB        10.8400   -1.9320    8.8250 C.3    17  MET17       0.0387
      6  CG        11.0390   -3.3570    8.4170 C.3    17  MET17       0.0595
      7  SD         9.7660   -3.8770    7.2430 S.3    17  MET17      -0.1393
      8  CE         8.2170   -3.6410    8.0470 C.3    17  MET17       0.0692
      9  N         15.3860   -3.6670    7.3050 N.3    19  PHE19      -0.1241
     10  CA        15.0770   -4.5590    6.1380 C.3    19  PHE19       0.1605
     11  C         16.3000   -4.9240    5.3030 C.2    19  PHE19       0.2264
     12  O         17.1630   -4.1790    4.8380 O.2    19  PHE19      -0.2867
     13  CB        13.9190   -3.8410    5.3610 C.3    19  PHE19       0.0534
     14  CG        13.2110   -4.6640    4.3390 C.ar   19  PHE19      -0.0203
     15  CD1       12.1130   -5.4620    4.6520 C.ar   19  PHE19      -0.0042
     16  CD2       13.6590   -4.6350    3.0020 C.ar   19  PHE19      -0.0042
     17  CE1       11.5810   -6.3210    3.7010 C.ar   19  PHE19      -0.0003
     18  CE2       13.0520   -5.3720    1.9420 C.ar   19  PHE19      -0.0003
     19  CZ        12.0110   -6.2460    2.3540 C.ar   19  PHE19      -0.0000
     20  N         18.1830   -6.5440    2.0750 N.3    21  LYS21      -0.1301
     21  CA        18.3180   -6.4710    0.6460 C.3    21  LYS21       0.1247
     22  C         18.0940   -7.8010   -0.0320 C.3    21  LYS21       0.2009
     23  O         17.3750   -7.6680   -1.0420 O.3    21  LYS21      -0.2188
     24  CB        19.6310   -5.7650    0.2570 C.3    21  LYS21       0.0218
     25  CG        19.3200   -4.2710    0.1390 C.3    21  LYS21       0.0031
     26  CD        20.4810   -3.3500    0.4820 C.3    21  LYS21       0.0205
     27  CE        21.4720   -3.3510   -0.6690 C.3    21  LYS21       0.1093
     28  NZ        22.1010   -1.9910   -0.7760 N.3    21  LYS21      -0.1314
     29  N         14.9760  -10.2100    0.3930 N.3    24  GLN24      -0.1231
     30  CA        14.2290   -9.0240    0.8790 C.3    24  GLN24       0.1698
     31  C         13.6060   -9.4160    2.2350 C.2    24  GLN24       0.2595
     32  O         12.5260  -10.0460    2.0630 O.2    24  GLN24      -0.2718
     33  CB        13.0200   -8.8070   -0.0390 C.3    24  GLN24       0.0381
     34  CG        13.2580   -8.4980   -1.4620 C.3    24  GLN24       0.0905
     35  CD        13.2480   -7.0160   -1.7830 C.2    24  GLN24       0.2608
     36  OE1       12.4720   -6.3670   -2.4850 O.2    24  GLN24      -0.2717
     37  NE2       14.2770   -6.4110   -1.1940 N.am   24  GLN24      -0.0878
     38  N         14.1860   -9.1810    3.4120 N.am   25  GLU25      -0.1920
     39  CA        13.4350   -9.6880    4.5860 C.3    25  GLU25       0.1949
     40  C         13.4580   -8.7490    5.7740 C.2    25  GLU25       0.2658
     41  O         14.3230   -7.8760    5.7800 O.2    25  GLU25      -0.2711
     42  CB        13.8400  -11.0730    5.0050 C.2    25  GLU25       0.0111
     43  CG        15.2860  -11.4430    4.9380 C.2    25  GLU25       0.0838
     44  CD        15.8010  -12.6820    5.6000 C.2    25  GLU25       0.3877
     45  OE1       14.9840  -13.5970    5.8230 O.co2  25  GLU25      -0.2406
     46  OE2       16.9790  -12.8490    5.9020 O.co2  25  GLU25      -0.2406
     47  N         12.4950   -8.8920    6.6360 N.am   26  LEU26      -0.1974
     48  CA        12.3640   -8.0940    7.8540 C.3    26  LEU26       0.1596
     49  C         13.4560   -8.7080    8.7660 C.2    26  LEU26       0.2287
     50  O         13.4750   -9.9600    8.8540 O.2    26  LEU26      -0.2864
     51  CB        11.0050   -8.1430    8.5130 C.3    26  LEU26       0.0297
     52  CG        10.9630   -7.6320    9.9570 C.3    26  LEU26       0.0022
     53  CD1       11.9090   -6.4220   10.0550 C.3    26  LEU26       0.0001
     54  CD2        9.5360   -7.2170   10.2560 C.3    26  LEU26       0.0001
     55  N         18.4910   -1.9110    4.5150 N.3    60  LEU60      -0.1245
     56  CA        17.7140   -0.7050    4.3630 C.3    60  LEU60       0.1561
     57  C         16.8510   -0.5880    5.6460 C.2    60  LEU60       0.2260
     58  O         16.5100   -1.5890    6.2630 O.2    60  LEU60      -0.2867
     59  CB        16.7000   -0.5630    3.2320 C.3    60  LEU60       0.0270
     60  CG        17.0450   -0.4180    1.7630 C.3    60  LEU60       0.0019
     61  CD1       18.4720   -0.0600    1.4250 C.3    60  LEU60       0.0001
     62  CD2       16.5550   -1.7620    1.2170 C.3    60  LEU60       0.0001
     63  N         13.4720    1.4340    6.4250 N.3    62  ARG62      -0.1245
     64  CA        12.0720    1.6950    6.1520 C.3    62  ARG62       0.1563
     65  C         11.4180    2.2540    7.4210 C.2    62  ARG62       0.2260
     66  O         11.1360    1.5780    8.4220 O.2    62  ARG62      -0.2867
     67  CB        11.4910    0.4190    5.6040 C.3    62  ARG62       0.0307
     68  CG        12.4110   -0.2570    4.5110 C.3    62  ARG62       0.0489
     69  CD        11.6860   -1.5510    4.2410 C.3    62  ARG62       0.2205
     70  NE        10.4120   -1.2300    3.5620 N.pl3  62  ARG62      -0.0865
     71  CZ         9.6940   -2.0780    2.7900 C.cat  62  ARG62       0.5346
     72  NH1        9.8510   -3.4280    2.6300 N.pl3  62  ARG62       0.1354
     73  NH2        8.5880   -1.6790    2.2060 N.pl3  62  ARG62       0.1354
     74  N          3.3340   -4.2500    7.2780 N.3    68  ARG68      -0.1231
     75  CA         4.5350   -5.0910    7.3190 C.3    68  ARG68       0.1694
     76  C          5.1410   -5.4250    5.9620 C.2    68  ARG68       0.2593
     77  O          6.3850   -5.3640    5.8560 O.2    68  ARG68      -0.2718
     78  CB         4.2240   -6.4070    8.0530 C.3    68  ARG68       0.0321
     79  CG         5.4810   -7.3170    8.0700 C.3    68  ARG68       0.0489
     80  CD         5.2200   -8.4020    9.0390 C.3    68  ARG68       0.2205
     81  NE         4.2070   -9.3310    8.6150 N.pl3  68  ARG68      -0.0865
     82  CZ         4.3320  -10.3410    7.7530 C.cat  68  ARG68       0.5346
     83  NH1        5.4840  -10.8060    7.3240 N.pl3  68  ARG68       0.1354
     84  NH2        3.2400  -11.0530    7.3940 N.pl3  68  ARG68       0.1354
     85  N          4.3500   -5.8080    4.9560 N.am   69  THR69      -0.1939
     86  CA         4.8630   -6.2650    3.6630 C.3    69  THR69       0.2028
     87  C          4.7100   -5.3640    2.4560 C.2    69  THR69       0.2642
     88  O          5.6540   -5.2540    1.6390 O.2    69  THR69      -0.2714
     89  CB         4.1650   -7.6560    3.4170 C.3    69  THR69       0.1808
     90  OG1        2.7230   -7.4240    3.2260 O.3    69  THR69      -0.2208
     91  CG2        4.4440   -8.6120    4.5830 C.3    69  THR69       0.0379
     92  N          3.5660   -4.6800    2.4080 N.am   70  ARG70      -0.1963
     93  CA         3.3190   -3.7620    1.3070 C.3    70  ARG70       0.1729
     94  C          4.3630   -2.6410    1.3810 C.2    70  ARG70       0.2613
     95  O          4.9000   -2.2490    2.4340 O.2    70  ARG70      -0.2715
     96  CB         1.9010   -3.1150    1.3610 C.3    70  ARG70       0.0348
     97  CG         0.6850   -4.0050    1.5740 C.3    70  ARG70       0.0492
     98  CD         1.0210   -5.4530    1.3470 C.3    70  ARG70       0.2205
     99  NE         1.5670   -5.6890    0.0640 N.pl3  70  ARG70      -0.0865
    100  CZ         2.1230   -6.7880   -0.4670 C.cat  70  ARG70       0.5346
    101  NH1        2.3010   -7.9010    0.2530 N.pl3  70  ARG70       0.1354
    102  NH2        2.3430   -6.7990   -1.7960 N.pl3  70  ARG70       0.1354
    103  N          4.5620   -1.9890    0.2150 N.am   71  TYR71      -0.2027
    104  CA         5.4560   -0.8420    0.0590 C.3    71  TYR71       0.1325
    105  C          4.5640    0.3760    0.1940 C.3    71  TYR71       0.2039
    106  O          3.8960    0.5300   -0.8330 O.3    71  TYR71      -0.2185
    107  CB         6.1160   -0.8450   -1.2910 C.3    71  TYR71       0.0507
    108  CG         6.8480    0.3940   -1.6200 C.ar   71  TYR71      -0.0202
    109  CD1        7.9100    0.8190   -0.8460 C.ar   71  TYR71      -0.0009
    110  CD2        6.4370    1.2420   -2.6340 C.ar   71  TYR71      -0.0009
    111  CE1        8.5910    2.0070   -1.1130 C.ar   71  TYR71       0.0417
    112  CE2        7.1060    2.4430   -2.9300 C.ar   71  TYR71       0.0417
    113  CZ         8.2070    2.8030   -2.1910 C.ar   71  TYR71       0.1957
    114  OH         8.9190    3.9100   -2.5120 O.3    71  TYR71      -0.2866
    115  N          3.7210    3.5560   -0.5520 N.3    73  ARG73      -0.1245
    116  CA         3.9160    4.4010   -1.6920 C.3    73  ARG73       0.1563
    117  C          4.1490    5.8480   -1.3500 C.2    73  ARG73       0.2260
    118  O          5.3410    6.2990   -1.4430 O.2    73  ARG73      -0.2867
    119  CB         2.9460    4.1600   -2.8660 C.3    73  ARG73       0.0307
    120  CG         3.4520    4.7360   -4.2100 C.3    73  ARG73       0.0489
    121  CD         3.1850    3.8220   -5.3540 C.3    73  ARG73       0.2205
    122  NE         1.8190    3.6080   -5.7650 N.pl3  73  ARG73      -0.0865
    123  CZ         1.1590    4.5850   -6.4530 C.cat  73  ARG73       0.5346
    124  NH1        1.6910    5.7940   -6.6130 N.pl3  73  ARG73       0.1354
    125  NH2       -0.1010    4.4070   -6.8700 N.pl3  73  ARG73       0.1354
    126  N          5.7240    5.6310    3.3280 N.3    76  GLU76      -0.1231
    127  CA         7.0360    5.1980    3.8790 C.3    76  GLU76       0.1699
    128  C          8.2280    5.7520    3.1570 C.2    76  GLU76       0.2592
    129  O          8.0910    6.2070    2.0030 O.2    76  GLU76      -0.2718
    130  CB         7.1110    3.6790    3.8820 C.3    76  GLU76       0.0402
    131  CG         7.4900    3.0810    2.5190 C.3    76  GLU76       0.1161
    132  CD         7.4540    1.5600    2.6710 C.2    76  GLU76       0.3649
    133  OE1        6.4540    0.8610    2.8400 O.co2  76  GLU76      -0.2457
    134  OE2        8.6970    1.2840    2.7150 O.co2  76  GLU76      -0.2457
    135  N          9.3290    5.9910    3.8600 N.am   77  LYS77      -0.1966
    136  CA        10.6160    6.5180    3.3230 C.3    77  LYS77       0.1728
    137  C         11.7030    5.4560    3.5300 C.2    77  LYS77       0.2616
    138  O         11.8070    4.7330    4.5430 O.2    77  LYS77      -0.2715
    139  CB        10.8980    7.9090    3.7820 C.3    77  LYS77       0.0311
    140  CG        10.0670    9.0520    3.0980 C.3    77  LYS77       0.0038
    141  CD         9.3520    8.4880    1.8780 C.3    77  LYS77       0.0206
    142  CE         8.6170    9.3320    0.8370 C.3    77  LYS77       0.1093
    143  NZ         8.4540    8.5720   -0.4680 N.3    77  LYS77      -0.1314
    144  N         12.5210    5.1720    2.5640 N.am   78  ILE78      -0.1977
    145  CA        13.5690    4.2060    2.5200 C.3    78  ILE78       0.1596
    146  C         14.9440    4.8510    2.4520 C.2    78  ILE78       0.2287
    147  O         15.2060    5.7810    1.6750 O.2    78  ILE78      -0.2864
    148  CB        13.4040    3.1350    1.3990 C.3    78  ILE78       0.0276
    149  CG1       11.8990    2.9710    1.0760 C.3    78  ILE78       0.0022
    150  CG2       14.1130    1.8130    1.8670 C.3    78  ILE78       0.0022
    151  CD1       11.3740    1.5410    0.6480 C.3    78  ILE78       0.0001
    152  N         19.2150    4.1980    3.1300 N.3    80  MET80      -0.1301
    153  CA        20.4650    3.4570    2.9180 C.3    80  MET80       0.1256
    154  C         21.3070    3.8890    4.1210 C.3    80  MET80       0.2010
    155  O         21.1310    5.0730    4.4810 O.3    80  MET80      -0.2188
    156  CB        21.0300    3.7530    1.5360 C.3    80  MET80       0.0333
    157  CG        20.1450    3.0660    0.5270 C.3    80  MET80       0.0592
    158  SD        20.9310    2.9120   -1.1250 S.3    80  MET80      -0.1393
    159  CE        21.4970    4.5580   -1.5140 C.3    80  MET80       0.0692
@<TRIPOS>BOND
     1   125   123    1
     2   124   123    1
     3   123   122    2
     4   122   121    1
     5   121   120    1
     6   120   119    1
     7   112   110   ar
     8   112   113   ar
     9   119   116    1
    10   110   108   ar
    11   114   113    1
    12    36    35    2
    13   113   111   ar
    14   102   100    1
    15    35    34    1
    16    35    37   am
    17   116   117    1
    18   116   115    1
    19   108   107    1
    20   108   109   ar
    21   159   158    1
    22    34    33    1
    23   118   117    2
    24   107   104    1
    25   158   157    1
    26   111   109   ar
    27    23    22    1
    28   106   105    1
    29    28    27    1
    30    27    26    1
    31   143   142    1
    32   100    99    2
    33   100   101    1
    34    33    30    1
    35    22    21    1
    36   104   105    1
    37   104   103    1
    38    99    98    1
    39    25    24    1
    40    25    26    1
    41   103    94   am
    42    24    21    1
    43    29    30    1
    44   157   156    1
    45    21    20    1
    46   151   149    1
    47   142   141    1
    48    30    31    1
    49   149   148    1
    50    62    60    1
    51    93    96    1
    52    93    94    1
    53    93    92    1
    54    98    97    1
    55    96    97    1
    56    94    95    2
    57   148   150    1
    58   148   145    1
    59    61    60    1
    60   156   153    1
    61    88    87    2
    62   147   146    2
    63    60    59    1
    64   141   140    1
    65    18    19   ar
    66    18    16   ar
    67   129   128    2
    68    32    31    2
    69    73    71    1
    70    31    38   am
    71    19    17   ar
    72    92    87   am
    73   146   145    1
    74    87    86    1
    75   131   132    1
    76   131   130    1
    77   145   144    1
    78   144   137   am
    79    72    71    1
    80   132   134   ar
    81   132   133   ar
    82    71    70    2
    83   153   152    1
    84   153   154    1
    85    16    14   ar
    86   140   139    1
    87   128   135   am
    88   128   127    1
    89    90    89    1
    90    59    56    1
    91   136   137    1
    92   136   139    1
    93   136   135    1
    94   126   127    1
    95    38    39    1
    96    89    86    1
    97    89    91    1
    98   137   138    2
    99    70    69    1
   100    86    85    1
   101    17    15   ar
   102   127   130    1
   103   154   155    1
   104    69    68    1
   105    14    15   ar
   106    14    13    1
   107    56    55    1
   108    56    57    1
   109    68    67    1
   110    39    42    1
   111    39    40    1
   112    12    11    2
   113    43    42    2
   114    43    44    1
   115    85    76   am
   116    11    10    1
   117    13    10    1
   118    44    45   ar
   119    44    46   ar
   120    67    64    1
   121    57    58    2
   122    40    41    2
   123    40    47   am
   124    77    76    2
   125    76    75    1
   126    10     9    1
   127    64    63    1
   128    64    65    1
   129    47    48    1
   130     7     8    1
   131     7     6    1
   132    74    75    1
   133    75    78    1
   134    83    82    1
   135    84    82    1
   136    65    66    2
   137    82    81    2
   138    48    51    1
   139    48    49    1
   140    78    79    1
   141    79    80    1
   142     6     5    1
   143    51    52    1
   144    81    80    1
   145    49    50    2
   146     4     3    2
   147     5     2    1
   148     3     2    1
   149     2     1    1
   150    52    53    1
   151    52    54    1
