@<TRIPOS>MOLECULE
tmp/1c4uB01.pdb
 194 195 0 0 0
SMALL
GASTEIGER

@<TRIPOS>ATOM
      1  N         22.2990   -7.0490   18.6480 N.3    43  HIS43      -0.1241
      2  CA        22.1600   -8.4500   18.2220 C.3    43  HIS43       0.1621
      3  C         21.6270   -8.5590   16.7720 C.2    43  HIS43       0.2264
      4  O         21.6220   -9.6130   16.1380 O.2    43  HIS43      -0.2867
      5  CB        21.3900   -9.3510   19.1680 C.3    43  HIS43       0.0745
      6  CG        19.9140   -9.2850   19.2260 C.ar   43  HIS43       0.0817
      7  ND1       19.2290   -8.4710   20.1000 N.ar   43  HIS43      -0.2268
      8  CD2       18.9890   -9.9550   18.4700 C.ar   43  HIS43       0.1154
      9  CE1       17.9010   -8.6310   19.8780 C.ar   43  HIS43       0.1986
     10  NE2       17.7840   -9.4860   18.8930 N.ar   43  HIS43      -0.2212
     11  N         25.8920  -11.2340   15.6420 N.3    47  TYR47      -0.1241
     12  CA        25.5970  -12.3990   16.5070 C.3    47  TYR47       0.1605
     13  C         26.2930  -13.6430   15.9440 C.2    47  TYR47       0.2264
     14  O         25.7120  -14.5840   15.3340 O.2    47  TYR47      -0.2867
     15  CB        24.1260  -12.5960   16.8650 C.3    47  TYR47       0.0534
     16  CG        23.8780  -13.5810   17.9630 C.ar   47  TYR47      -0.0201
     17  CD1       24.2150  -13.0870   19.2560 C.ar   47  TYR47      -0.0009
     18  CD2       23.3190  -14.8460   17.9150 C.ar   47  TYR47      -0.0009
     19  CE1       23.9500  -13.8520   20.4210 C.ar   47  TYR47       0.0417
     20  CE2       23.1040  -15.6460   19.0870 C.ar   47  TYR47       0.0417
     21  CZ        23.4170  -15.1560   20.3690 C.ar   47  TYR47       0.1957
     22  OH        23.3430  -15.7720   21.5820 O.3    47  TYR47      -0.2866
     23  N         25.3500  -17.2010   15.7200 N.3    50  TRP50      -0.1241
     24  CA        24.3710  -17.4640   14.6390 C.3    50  TRP50       0.1605
     25  C         25.0050  -17.0490   13.3170 C.2    50  TRP50       0.2264
     26  O         24.2410  -16.8430   12.3410 O.2    50  TRP50      -0.2867
     27  CB        22.9950  -16.8450   14.7350 C.3    50  TRP50       0.0550
     28  CG        22.1450  -17.3420   15.8410 C.ar   50  TRP50       0.0003
     29  CD1       22.3020  -18.5280   16.4900 C.ar   50  TRP50       0.0946
     30  CD2       21.0570  -16.6550   16.5110 C.ar   50  TRP50       0.0152
     31  NE1       21.3800  -18.6520   17.5010 N.ar   50  TRP50      -0.2442
     32  CE2       20.6030  -17.5120   17.5550 C.ar   50  TRP50       0.0810
     33  CE3       20.3930  -15.4570   16.2660 C.ar   50  TRP50       0.0012
     34  CZ2       19.5380  -17.2400   18.3780 C.ar   50  TRP50       0.0191
     35  CZ3       19.2820  -15.1840   17.0410 C.ar   50  TRP50       0.0001
     36  CH2       18.8900  -16.0110   18.0810 C.ar   50  TRP50       0.0015
     37  N         28.0930  -10.3950   23.4790 N.3    92  TRP92      -0.1241
     38  CA        27.3170  -11.4300   22.7960 C.3    92  TRP92       0.1605
     39  C         27.7280  -12.8100   23.2910 C.2    92  TRP92       0.2264
     40  O         27.0160  -13.8010   23.0940 O.2    92  TRP92      -0.2867
     41  CB        27.5150  -11.3650   21.2690 C.3    92  TRP92       0.0550
     42  CG        28.9810  -11.3590   20.7780 C.ar   92  TRP92       0.0003
     43  CD1       29.7460  -10.2840   20.5330 C.ar   92  TRP92       0.0946
     44  CD2       29.7670  -12.5140   20.4870 C.ar   92  TRP92       0.0152
     45  NE1       31.0140  -10.7580   20.0600 N.ar   92  TRP92      -0.2442
     46  CE2       31.0020  -12.0660   20.0310 C.ar   92  TRP92       0.0810
     47  CE3       29.5290  -13.8910   20.5630 C.ar   92  TRP92       0.0012
     48  CZ2       32.0260  -12.9300   19.6150 C.ar   92  TRP92       0.0191
     49  CZ3       30.5700  -14.7530   20.1550 C.ar   92  TRP92       0.0001
     50  CH2       31.7580  -14.2930   19.7020 C.ar   92  TRP92       0.0015
     51  N         27.9030  -13.8950   26.3940 N.3    94  GLU94      -0.1231
     52  CA        27.2630  -14.5120   27.5840 C.3    94  GLU94       0.1699
     53  C         25.8140  -14.0400   27.8630 C.2    94  GLU94       0.2592
     54  O         24.8800  -14.8510   27.9550 O.2    94  GLU94      -0.2718
     55  CB        28.1970  -14.3420   28.8040 C.3    94  GLU94       0.0402
     56  CG        27.7380  -13.3620   29.8880 C.3    94  GLU94       0.1161
     57  CD        28.9240  -12.8450   30.7260 C.2    94  GLU94       0.3649
     58  OE1       30.0210  -12.4980   30.1350 O.co2  94  GLU94      -0.2457
     59  OE2       28.8380  -12.7510   32.0110 O.co2  94  GLU94      -0.2457
     60  N         25.5700  -12.7500   28.0030 N.am   95  ASN95      -0.1960
     61  CA        24.2020  -12.2980   28.3500 C.3    95  ASN95       0.1819
     62  C         23.7180  -11.1260   27.4960 C.2    95  ASN95       0.2621
     63  O         22.7300  -10.4550   27.8340 O.2    95  ASN95      -0.2715
     64  CB        24.1600  -11.8410   29.8030 C.3    95  ASN95       0.1195
     65  CG        25.2570  -10.8300   30.1290 C.2    95  ASN95       0.2630
     66  OD1       26.0030  -10.4250   29.2380 O.2    95  ASN95      -0.2716
     67  ND2       25.4030  -10.3910   31.3640 N.am   95  ASN95      -0.0877
     68  N         24.4070  -10.8920   26.4060 N.am   96  LEU96      -0.1977
     69  CA        24.0490   -9.8000   25.4920 C.3    96  LEU96       0.1596
     70  C         24.1240   -8.4580   26.2260 C.2    96  LEU96       0.2287
     71  O         23.2760   -7.5730   26.0270 O.2    96  LEU96      -0.2864
     72  CB        22.6180   -9.9970   24.9860 C.3    96  LEU96       0.0297
     73  CG        22.5460  -10.2580   23.4820 C.3    96  LEU96       0.0022
     74  CD1       23.7170  -11.0930   22.9620 C.3    96  LEU96       0.0001
     75  CD2       21.2810  -11.0110   23.0660 C.3    96  LEU96       0.0001
     76  N         20.3140  -16.7840   33.3140 N.3   172  ILE172     -0.1301
     77  CA        21.2630  -15.8680   32.5740 C.3   172  ILE172      0.1246
     78  C         21.7640  -14.7920   33.5100 C.3   172  ILE172      0.2009
     79  O         20.8980  -14.4520   34.3410 O.3   172  ILE172     -0.2188
     80  CB        20.5410  -15.3660   31.2610 C.3   172  ILE172      0.0202
     81  CG1       20.5280  -16.4490   30.1200 C.3   172  ILE172      0.0015
     82  CG2       21.1130  -14.0260   30.7600 C.3   172  ILE172      0.0016
     83  CD1       21.9430  -16.6630   29.4700 C.3   172  ILE172      0.0000
     84  N          4.0910  -10.0480   25.3560 N.3   192  ASP192     -0.1225
     85  CA         5.5430   -9.9540   25.3140 C.3   192  ASP192      0.1805
     86  C          5.7400   -9.5320   23.8380 C.2   192  ASP192      0.2598
     87  O          4.7960   -9.4160   23.0780 O.2   192  ASP192     -0.2718
     88  CB         6.1380  -11.3720   25.5270 C.3   192  ASP192      0.1424
     89  CG         7.6230  -11.5090   25.8890 C.2   192  ASP192      0.3668
     90  OD1        8.2140  -10.4130   26.0990 O.co2 192  ASP192     -0.2456
     91  OD2        8.1660  -12.6840   25.9560 O.co2 192  ASP192     -0.2456
     92  N          7.0210   -9.3200   23.5870 N.am  193  ALA193     -0.1966
     93  CA         7.6530   -9.0510   22.3360 C.3   193  ALA193      0.1728
     94  C          7.9880  -10.5190   21.9150 C.2   193  ALA193      0.2616
     95  O          7.9300  -11.4130   22.7550 O.2   193  ALA193     -0.2715
     96  CB         8.9670   -8.2650   22.4650 C.3   193  ALA193      0.0334
     97  N          8.4360  -10.6720   20.7010 N.am  194  CYS194     -0.1954
     98  CA         8.8480  -12.0130   20.3030 C.3   194  CYS194      0.1843
     99  C          9.9090  -11.7310   19.2260 C.2   194  CYS194      0.2625
    100  O         10.3180  -10.5700   18.9160 O.2   194  CYS194     -0.2714
    101  CB         7.5840  -12.7400   19.9050 C.3   194  CYS194      0.0997
    102  SG         7.5870  -14.5420   19.6120 S.3   194  CYS194     -0.0798
    103  N         10.3490  -12.8660   18.6800 N.am  195  GLU195     -0.1977
    104  CA        11.2510  -12.8180   17.5220 C.3   195  GLU195      0.1602
    105  C         10.6380  -11.9150   16.4470 C.2   195  GLU195      0.2287
    106  O          9.4300  -12.0490   16.1700 O.2   195  GLU195     -0.2864
    107  CB        11.1290  -14.2270   16.8840 C.3   195  GLU195      0.0415
    108  CG        11.5700  -14.2910   15.4410 C.3   195  GLU195      0.1163
    109  CD        12.2980  -15.4730   14.8940 C.2   195  GLU195      0.3649
    110  OE1       12.0020  -16.6280   15.3080 O.co2 195  GLU195     -0.2457
    111  OE2       13.1810  -15.2550   14.0320 O.co2 195  GLU195     -0.2457
    112  N         12.9830   -7.5250   17.9640 N.3   198  SER198     -0.1217
    113  CA        14.3230   -7.1250   18.4330 C.3   198  SER198      0.1889
    114  C         14.6130   -5.7260   17.8870 C.2   198  SER198      0.2288
    115  O         14.2640   -5.5160   16.6900 O.2   198  SER198     -0.2866
    116  CB        15.4280   -8.0060   17.8150 C.3   198  SER198      0.2089
    117  OG        15.3780   -9.3250   18.3030 O.3   198  SER198     -0.2183
    118  N         14.3340   -3.6630   22.6790 N.3   218  VAL218     -0.1231
    119  CA        14.0160   -5.1000   22.7210 C.3   218  VAL218      0.1692
    120  C         15.2780   -5.9180   22.5000 C.2   218  VAL218      0.2593
    121  O         15.9300   -5.8520   21.4610 O.2   218  VAL218     -0.2718
    122  CB        13.0430   -5.4250   21.5270 C.3   218  VAL218      0.0266
    123  CG1       12.7820   -6.9570   21.4790 C.3   218  VAL218      0.0020
    124  CG2       11.7720   -4.6170   21.6670 C.3   218  VAL218      0.0020
    125  N         15.5240   -6.8170   23.4520 N.am  219  SER219     -0.1938
    126  CA        16.7180   -7.6400   23.4830 C.3   219  SER219      0.2055
    127  C         16.6950   -9.1190   23.5800 C.2   219  SER219      0.2643
    128  O         16.9670   -9.7290   22.5780 O.2   219  SER219     -0.2714
    129  CB        17.5380   -7.1360   24.7120 C.3   219  SER219      0.2130
    130  OG        18.9160   -7.2500   24.3210 O.3   219  SER219     -0.2179
    131  N         16.3080   -9.6890   24.6900 N.am  220  TRP220     -0.1959
    132  CA        16.2500  -11.1540   24.8580 C.3   220  TRP220      0.1771
    133  C         15.1010  -11.4850   25.7690 C.2   220  TRP220      0.2620
    134  O         14.5010  -10.7130   26.5560 O.2   220  TRP220     -0.2715
    135  CB        17.6740  -11.6570   25.3050 C.3   220  TRP220      0.0590
    136  CG        18.0520  -11.2570   26.6870 C.ar  220  TRP220      0.0006
    137  CD1       18.5540  -10.0620   27.0830 C.ar  220  TRP220      0.0946
    138  CD2       17.9690  -12.0640   27.9010 C.ar  220  TRP220      0.0152
    139  NE1       18.7730  -10.0380   28.4540 N.ar  220  TRP220     -0.2442
    140  CE2       18.3510  -11.2350   28.9800 C.ar  220  TRP220      0.0810
    141  CE3       17.4700  -13.3610   28.1730 C.ar  220  TRP220      0.0012
    142  CZ2       18.2920  -11.6620   30.2930 C.ar  220  TRP220      0.0191
    143  CZ3       17.4670  -13.7730   29.4900 C.ar  220  TRP220      0.0001
    144  CH2       17.8620  -12.9600   30.5320 C.ar  220  TRP220      0.0015
    145  N         14.7400  -12.7490   25.7210 N.am  221  GLY221     -0.1940
    146  CA        13.6820  -13.4150   26.4750 C.3   221  GLY221      0.2014
    147  C         13.7080  -14.8760   26.1300 C.2   221  GLY221      0.2639
    148  O         14.2640  -15.2340   25.0830 O.2   221  GLY221     -0.2714
    149  N         13.1290  -15.6730   27.0120 N.am  222  GLU222     -0.1963
    150  CA        13.1190  -17.1990   26.7340 C.3   222  GLU222      0.1733
    151  C         11.7100  -17.4820   26.2920 C.2   222  GLU222      0.2617
    152  O         10.6760  -17.2290   26.9910 O.2   222  GLU222     -0.2715
    153  CB        13.4920  -17.8920   28.0670 C.3   222  GLU222      0.0429
    154  CG        14.8400  -17.5760   28.7510 C.3   222  GLU222      0.1163
    155  CD        15.0400  -17.5590   30.2320 C.2   222  GLU222      0.3649
    156  OE1       14.8160  -16.4230   30.7680 O.co2 222  GLU222     -0.2457
    157  OE2       15.4270  -18.4280   31.0200 O.co2 222  GLU222     -0.2457
    158  N         11.5860  -17.8290   25.0300 N.am  223  GLY223     -0.1940
    159  CA        10.2140  -18.0780   24.4600 C.3   223  GLY223      0.2014
    160  C          9.6170  -16.6670   24.3190 C.2   223  GLY223      0.2635
    161  O         10.3780  -15.6730   24.2480 O.2   223  GLY223     -0.2714
    162  N          8.3210  -16.6250   24.1580 N.am  224  CYS224     -0.2021
    163  CA         7.5490  -15.3650   24.0040 C.3   224  CYS224      0.1398
    164  C          6.3370  -15.5060   24.9140 C.3   224  CYS224      0.2045
    165  O          5.6810  -16.5210   24.6990 O.3   224  CYS224     -0.2185
    166  CB         6.9790  -15.1510   22.5650 C.3   224  CYS224      0.0930
    167  SG         8.3340  -15.2030   21.4210 S.3   224  CYS224     -0.0802
    168  N         10.5500  -10.3140   29.6170 N.3   231  GLY231     -0.1210
    169  CA        11.3450   -9.8440   28.4200 C.3   231  GLY231      0.1956
    170  C         12.3390   -8.8300   29.0270 C.2   231  GLY231      0.2612
    171  O         11.8620   -8.1730   29.9530 O.2   231  GLY231     -0.2717
    172  N         13.4700   -8.9480   28.3450 N.am  232  PHE232     -0.1962
    173  CA        14.6100   -8.1250   28.8000 C.3   232  PHE232      0.1771
    174  C         14.9360   -7.0760   27.7380 C.2   232  PHE232      0.2619
    175  O         14.8670   -7.4340   26.5330 O.2   232  PHE232     -0.2715
    176  CB        15.8260   -9.0550   29.0790 C.3   232  PHE232      0.0574
    177  CG        15.8050   -9.6840   30.4330 C.ar  232  PHE232     -0.0200
    178  CD1       16.3380   -8.9990   31.5500 C.ar  232  PHE232     -0.0042
    179  CD2       15.1420  -10.8830   30.6200 C.ar  232  PHE232     -0.0042
    180  CE1       16.2690   -9.6220   32.8270 C.ar  232  PHE232     -0.0003
    181  CE2       14.9130  -11.4470   31.9060 C.ar  232  PHE232     -0.0003
    182  CZ        15.5510  -10.8060   32.9840 C.ar  232  PHE232     -0.0000
    183  N         15.1400   -5.8660   28.2260 N.am  233  TYR233     -0.1974
    184  CA        15.4770   -4.7680   27.3630 C.3   233  TYR233      0.1639
    185  C         16.7740   -4.0670   27.7640 C.2   233  TYR233      0.2290
    186  O         17.0820   -3.7980   28.9230 O.2   233  TYR233     -0.2864
    187  CB        14.3990   -3.6100   27.5310 C.3   233  TYR233      0.0560
    188  CG        13.0380   -4.2020   27.2840 C.ar  233  TYR233     -0.0198
    189  CD1       12.4320   -5.0050   28.2380 C.ar  233  TYR233     -0.0009
    190  CD2       12.4640   -4.1480   26.0490 C.ar  233  TYR233     -0.0009
    191  CE1       11.2510   -5.6880   27.9680 C.ar  233  TYR233      0.0417
    192  CE2       11.2220   -4.7310   25.8120 C.ar  233  TYR233      0.0417
    193  CZ        10.6140   -5.5100   26.7370 C.ar  233  TYR233      0.1957
    194  OH         9.3760   -6.0550   26.4670 O.3   233  TYR233     -0.2866
@<TRIPOS>BOND
     1    26    25    2
     2    25    24    1
     3   111   109   ar
     4    24    27    1
     5    24    23    1
     6    27    28    1
     7   109   110   ar
     8   109   108    1
     9    14    13    2
    10   108   107    1
    11    11    12    1
    12    28    29   ar
    13    28    30   ar
    14    13    12    1
    15     4     3    2
    16   106   105    2
    17    33    30   ar
    18    33    35   ar
    19   105   104    1
    20    29    31   ar
    21    12    15    1
    22    30    32   ar
    23   115   114    2
    24     3     2    1
    25    15    16    1
    26   107   104    1
    27    35    36   ar
    28    31    32   ar
    29   104   103    1
    30    32    34   ar
    31   116   117    1
    32   116   113    1
    33   114   113    1
    34    18    16   ar
    35    18    20   ar
    36    16    17   ar
    37   112   113    1
    38    36    34   ar
    39     2     1    1
    40     2     5    1
    41     8    10   ar
    42     8     6   ar
    43   103    99   am
    44    10     9   ar
    45   100    99    2
    46    20    21   ar
    47     5     6    1
    48     6     7   ar
    49    99    98    1
    50    17    19   ar
    51   102   101    1
    52   102   167    1
    53    48    50   ar
    54    48    46   ar
    55    50    49   ar
    56     9     7   ar
    57   101    98    1
    58    46    45   ar
    59    46    44   ar
    60    45    43   ar
    61    49    47   ar
    62    98    97    1
    63    21    19   ar
    64    21    22    1
    65    44    47   ar
    66    44    42   ar
    67    43    42   ar
    68    97    94   am
    69    42    41    1
    70    41    38    1
    71   167   166    1
    72   121   120    2
    73   123   122    1
    74   122   124    1
    75   122   119    1
    76    94    93    1
    77    94    95    2
    78    93    96    1
    79    93    92    1
    80   120   119    1
    81   120   125   am
    82   166   163    1
    83   128   127    2
    84   118   119    1
    85    38    39    1
    86    38    37    1
    87    74    73    1
    88    75    73    1
    89    87    86    2
    90    40    39    2
    91   125   126    1
    92    73    72    1
    93   126   127    1
    94   126   129    1
    95   127   131   am
    96    92    86   am
    97    86    85    1
    98   163   162    1
    99   163   164    1
   100   162   160   am
   101   161   160    2
   102   160   159    1
   103   130   129    1
   104   159   158    1
   105   131   132    1
   106   165   164    1
   107   132   135    1
   108   132   133    1
   109    72    69    1
   110   158   151   am
   111   148   147    2
   112   135   136    1
   113    85    84    1
   114    85    88    1
   115    69    70    1
   116    69    68    1
   117    88    89    1
   118   145   133   am
   119   145   146    1
   120   133   134    2
   121   192   190   ar
   122   192   193   ar
   123    89    91   ar
   124    89    90   ar
   125    71    70    2
   126   190   188   ar
   127   147   146    1
   128   147   149   am
   129   151   150    1
   130   151   152    2
   131    51    52    1
   132    68    62   am
   133   194   193    1
   134   175   174    2
   135   136   137   ar
   136   136   138   ar
   137   150   149    1
   138   150   153    1
   139   193   191   ar
   140   137   139   ar
   141   188   187    1
   142   188   189   ar
   143   184   187    1
   144   184   185    1
   145   184   183    1
   146    62    63    2
   147    62    61    1
   148    52    53    1
   149    52    55    1
   150   174   183   am
   151   174   173    1
   152   185   186    2
   153    53    54    2
   154    53    60   am
   155   138   141   ar
   156   138   140   ar
   157   191   189   ar
   158    60    61    1
   159   153   154    1
   160   141   143   ar
   161   172   173    1
   162   172   170   am
   163    61    64    1
   164   169   170    1
   165   169   168    1
   166   139   140   ar
   167   154   155    1
   168   173   176    1
   169    55    56    1
   170   140   142   ar
   171   170   171    2
   172   176   177    1
   173    66    65    2
   174    83    81    1
   175   143   144   ar
   176    64    65    1
   177    56    57    1
   178    81    80    1
   179    65    67   am
   180    58    57   ar
   181   155   156   ar
   182   155   157   ar
   183   142   144   ar
   184   177   179   ar
   185   177   178   ar
   186   179   181   ar
   187    57    59   ar
   188    82    80    1
   189    80    77    1
   190   178   180   ar
   191   181   182   ar
   192    77    76    1
   193    77    78    1
   194   180   182   ar
   195    78    79    1
