@<TRIPOS>MOLECULE
tmp/1c4vB01.pdb
 246 247 0 0 0
SMALL
GASTEIGER

@<TRIPOS>ATOM
      1  N         22.6260   -6.9420   17.8820 N.3    43  HIS43      -0.1241
      2  CA        22.3510   -8.2860   17.4080 C.3    43  HIS43       0.1621
      3  C         21.5310   -8.3490   16.0920 C.2    43  HIS43       0.2264
      4  O         21.3210   -9.3910   15.4930 O.2    43  HIS43      -0.2867
      5  CB        21.6000   -9.1970   18.3990 C.3    43  HIS43       0.0745
      6  CG        20.1240   -9.1130   18.5180 C.ar   43  HIS43       0.0817
      7  ND1       19.4070   -8.6220   19.5720 N.ar   43  HIS43      -0.2268
      8  CD2       19.1340   -9.4790   17.6500 C.ar   43  HIS43       0.1154
      9  CE1       18.1250   -8.6560   19.3380 C.ar   43  HIS43       0.1986
     10  NE2       17.8930   -9.1820   18.1690 N.ar   43  HIS43      -0.2212
     11  N         26.1930  -11.0350   14.9000 N.3    47  TYR47      -0.1241
     12  CA        25.8930  -12.1900   15.7970 C.3    47  TYR47       0.1605
     13  C         26.6640  -13.3970   15.2730 C.2    47  TYR47       0.2264
     14  O         26.1160  -14.2650   14.5870 O.2    47  TYR47      -0.2867
     15  CB        24.3440  -12.3270   15.7750 C.3    47  TYR47       0.0534
     16  CG        24.0070  -13.2470   16.9080 C.ar   47  TYR47      -0.0201
     17  CD1       24.4790  -12.7730   18.1540 C.ar   47  TYR47      -0.0009
     18  CD2       23.5390  -14.5060   16.7850 C.ar   47  TYR47      -0.0009
     19  CE1       24.3530  -13.6000   19.2530 C.ar   47  TYR47       0.0417
     20  CE2       23.3770  -15.3240   17.9030 C.ar   47  TYR47       0.0417
     21  CZ        23.8350  -14.9000   19.1380 C.ar   47  TYR47       0.1957
     22  OH        23.6440  -15.6460   20.2990 O.3    47  TYR47      -0.2866
     23  N         25.6170  -16.9130   15.0120 N.3    50  TRP50      -0.1241
     24  CA        24.6060  -17.2730   13.9730 C.3    50  TRP50       0.1605
     25  C         25.0040  -16.9280   12.5800 C.2    50  TRP50       0.2264
     26  O         24.1580  -17.0480   11.6490 O.2    50  TRP50      -0.2867
     27  CB        23.2470  -16.7080   14.2730 C.3    50  TRP50       0.0550
     28  CG        22.5670  -17.2560   15.4410 C.ar   50  TRP50       0.0003
     29  CD1       22.8660  -18.4010   16.1410 C.ar   50  TRP50       0.0946
     30  CD2       21.3330  -16.7620   16.0060 C.ar   50  TRP50       0.0152
     31  NE1       21.8620  -18.6560   17.0710 N.ar   50  TRP50      -0.2442
     32  CE2       20.8950  -17.6890   16.9720 C.ar   50  TRP50       0.0810
     33  CE3       20.5180  -15.6640   15.6800 C.ar   50  TRP50       0.0012
     34  CZ2       19.7690  -17.4470   17.7520 C.ar   50  TRP50       0.0191
     35  CZ3       19.3350  -15.5390   16.3720 C.ar   50  TRP50       0.0001
     36  CH2       19.0010  -16.2830   17.4600 C.ar   50  TRP50       0.0015
     37  N         25.9180  -13.9900   11.5610 N.3    52  LYS52      -0.1245
     38  CA        25.3580  -12.6670   11.2770 C.3    52  LYS52       0.1561
     39  C         26.4640  -11.6150   11.3350 C.2    52  LYS52       0.2260
     40  O         27.2520  -11.5320   12.2530 O.2    52  LYS52      -0.2867
     41  CB        24.1620  -12.2520   12.0970 C.3    52  LYS52       0.0271
     42  CG        23.9040  -10.7140   11.8720 C.3    52  LYS52       0.0035
     43  CD        22.4390  -10.4530   12.0850 C.3    52  LYS52       0.0206
     44  CE        21.8510  -11.4100   13.0530 C.3    52  LYS52       0.1093
     45  NZ        20.3980  -11.2150   13.2270 N.3    52  LYS52      -0.1314
     46  N         28.0910  -10.3400   22.6330 N.3    92  TRP92      -0.1241
     47  CA        27.4110  -11.3520   21.8420 C.3    92  TRP92       0.1605
     48  C         27.7310  -12.7140   22.4160 C.2    92  TRP92       0.2264
     49  O         26.9960  -13.7440   22.2470 O.2    92  TRP92      -0.2867
     50  CB        27.7280  -11.2060   20.3450 C.3    92  TRP92       0.0550
     51  CG        29.1190  -11.1370   19.9150 C.ar   92  TRP92       0.0003
     52  CD1       29.8980  -10.0250   19.7320 C.ar   92  TRP92       0.0946
     53  CD2       29.9840  -12.2560   19.6440 C.ar   92  TRP92       0.0152
     54  NE1       31.1840  -10.3430   19.2750 N.ar   92  TRP92      -0.2442
     55  CE2       31.2780  -11.7230   19.2450 C.ar   92  TRP92       0.0810
     56  CE3       29.8200  -13.6580   19.7210 C.ar   92  TRP92       0.0012
     57  CZ2       32.3420  -12.5590   18.9750 C.ar   92  TRP92       0.0191
     58  CZ3       30.8680  -14.4750   19.3240 C.ar   92  TRP92       0.0001
     59  CH2       32.0880  -13.9120   18.9070 C.ar   92  TRP92       0.0015
     60  N         28.0230  -13.7270   25.4320 N.3    94  GLU94      -0.1231
     61  CA        27.3060  -14.1370   26.5630 C.3    94  GLU94       0.1699
     62  C         25.8690  -13.8840   26.7760 C.2    94  GLU94       0.2592
     63  O         25.1300  -14.9040   26.7900 O.2    94  GLU94      -0.2718
     64  CB        27.9710  -13.7050   27.9250 C.3    94  GLU94       0.0402
     65  CG        27.2580  -14.5710   29.0280 C.3    94  GLU94       0.1161
     66  CD        27.7900  -14.0930   30.3670 C.2    94  GLU94       0.3649
     67  OE1       28.8980  -13.5290   30.3410 O.co2  94  GLU94      -0.2457
     68  OE2       26.9490  -14.3560   31.2720 O.co2  94  GLU94      -0.2457
     69  N         25.5640  -12.6570   27.1510 N.am   95  ASN95      -0.1960
     70  CA        24.1750  -12.3170   27.5560 C.3    95  ASN95       0.1819
     71  C         23.5780  -11.1680   26.7370 C.2    95  ASN95       0.2621
     72  O         22.4890  -10.6290   26.9590 O.2    95  ASN95      -0.2715
     73  CB        24.3620  -12.0930   29.0430 C.3    95  ASN95       0.1195
     74  CG        25.2420  -10.8770   29.3700 C.2    95  ASN95       0.2630
     75  OD1       26.1530  -10.3380   28.7620 O.2    95  ASN95      -0.2716
     76  ND2       24.9790  -10.3730   30.6100 N.am   95  ASN95      -0.0877
     77  N         24.2850  -10.7190   25.6940 N.am   96  LEU96      -0.1977
     78  CA        23.9040   -9.6160   24.8200 C.3    96  LEU96       0.1596
     79  C         23.8390   -8.3280   25.6670 C.2    96  LEU96       0.2287
     80  O         22.8270   -7.6070   25.4650 O.2    96  LEU96      -0.2864
     81  CB        22.5820   -9.8090   24.0060 C.3    96  LEU96       0.0297
     82  CG        22.4530  -11.1040   23.2780 C.3    96  LEU96       0.0022
     83  CD1       20.9740  -11.5660   23.2300 C.3    96  LEU96       0.0001
     84  CD2       23.0750  -11.0650   21.8980 C.3    96  LEU96       0.0001
     85  N         15.2810  -16.2580   34.9820 N.3   170  THR170     -0.1203
     86  CA        16.2730  -16.8550   34.0520 C.3   170  THR170      0.1994
     87  C         17.5480  -17.3970   34.6850 C.2   170  THR170      0.2618
     88  O         17.7270  -17.2930   35.9070 O.2   170  THR170     -0.2717
     89  CB        16.7080  -15.6790   33.0730 C.3   170  THR170      0.1784
     90  OG1       17.8360  -16.2360   32.2900 O.3   170  THR170     -0.2211
     91  CG2       16.9670  -14.3710   33.7920 C.3   170  THR170      0.0376
     92  N         18.4110  -17.9360   33.8750 N.am  171  ARG171     -0.1965
     93  CA        19.6810  -18.5240   34.2000 C.3   171  ARG171      0.1729
     94  C         20.7940  -17.6440   33.5960 C.2   171  ARG171      0.2616
     95  O         21.9810  -17.8480   33.9450 O.2   171  ARG171     -0.2715
     96  CB        19.9380  -19.9380   33.6780 C.3   171  ARG171      0.0348
     97  CG        18.9800  -21.0170   34.2610 C.3   171  ARG171      0.0492
     98  CD        19.3820  -22.2810   33.6350 C.3   171  ARG171      0.2205
     99  NE        20.0260  -23.3370   34.2810 N.pl3 171  ARG171     -0.0865
    100  CZ        20.5070  -24.5090   33.9840 C.cat 171  ARG171      0.5346
    101  NH1       20.6460  -25.0990   32.8140 N.pl3 171  ARG171      0.1354
    102  NH2       20.6260  -25.5090   34.8750 N.pl3 171  ARG171      0.1354
    103  N         20.3240  -16.8120   32.7260 N.am  172  ILE172     -0.1977
    104  CA        21.1840  -15.8380   32.0200 C.3   172  ILE172      0.1596
    105  C         21.5310  -14.7590   33.0370 C.2   172  ILE172      0.2287
    106  O         20.7500  -14.3920   33.9340 O.2   172  ILE172     -0.2864
    107  CB        20.4170  -15.3290   30.7260 C.3   172  ILE172      0.0276
    108  CG1       20.1480  -16.5280   29.7620 C.3   172  ILE172      0.0022
    109  CG2       21.1260  -14.2220   29.9080 C.3   172  ILE172      0.0022
    110  CD1       19.0970  -16.1620   28.6570 C.3   172  ILE172      0.0001
    111  N          4.0470  -10.1310   24.6390 N.3   192  ASP192     -0.1225
    112  CA         5.5240  -10.2470   24.5720 C.3   192  ASP192      0.1805
    113  C          5.7660   -9.6340   23.2010 C.2   192  ASP192      0.2598
    114  O          4.8380   -9.1440   22.5810 O.2   192  ASP192     -0.2718
    115  CB         6.1100  -11.5330   25.0160 C.3   192  ASP192      0.1424
    116  CG         7.5540  -11.6520   25.4840 C.2   192  ASP192      0.3668
    117  OD1        8.0050  -12.8410   25.4470 O.co2 192  ASP192     -0.2456
    118  OD2        8.3960  -10.7300   25.7100 O.co2 192  ASP192     -0.2456
    119  N          7.0070   -9.3830   22.9920 N.am  193  ALA193     -0.1966
    120  CA         7.6560   -8.9520   21.7960 C.3   193  ALA193      0.1728
    121  C          7.8820  -10.4250   21.2940 C.2   193  ALA193      0.2616
    122  O          7.5630  -11.3200   22.1190 O.2   193  ALA193     -0.2715
    123  CB         9.0310   -8.3460   22.0660 C.3   193  ALA193      0.0334
    124  N          8.4950  -10.5400   20.1680 N.am  194  CYS194     -0.1954
    125  CA         8.7360  -11.8780   19.5940 C.3   194  CYS194      0.1843
    126  C          9.7400  -11.7230   18.4900 C.2   194  CYS194      0.2628
    127  O         10.3420  -10.6280   18.2810 O.2   194  CYS194     -0.2714
    128  CB         7.4550  -12.6030   19.3150 C.3   194  CYS194      0.0997
    129  SG         7.5950  -14.3820   19.1270 S.3   194  CYS194     -0.0797
    130  N          9.8820  -12.8390   17.8050 N.am  195  GLU195     -0.1917
    131  CA        10.9140  -12.9110   16.7350 C.3   195  GLU195      0.1949
    132  C         10.5370  -11.9330   15.6340 C.2   195  GLU195      0.2659
    133  O          9.4200  -11.8540   15.1400 O.2   195  GLU195     -0.2711
    134  CB        11.1960  -14.2900   16.2500 C.2   195  GLU195      0.0111
    135  CG        12.0330  -14.6160   15.0240 C.2   195  GLU195      0.0838
    136  CD        11.9430  -16.0280   14.5410 C.2   195  GLU195      0.3877
    137  OE1       12.7140  -16.4380   13.6510 O.co2 195  GLU195     -0.2406
    138  OE2       11.1430  -16.8400   15.1030 O.co2 195  GLU195     -0.2406
    139  N         11.5880  -11.1940   15.3390 N.am  196  GLY196     -0.1952
    140  CA        11.6480  -10.1140   14.3420 C.3   196  GLY196      0.1869
    141  C         11.3200   -8.8390   15.1080 C.2   196  GLY196      0.2309
    142  O         11.2550   -7.7680   14.5030 O.2   196  GLY196     -0.2863
    143  N         13.2060   -7.7640   17.7070 N.3   198  SER198     -0.1217
    144  CA        14.5010   -7.1100   18.0500 C.3   198  SER198      0.1889
    145  C         14.6160   -5.7420   17.4000 C.2   198  SER198      0.2288
    146  O         14.2470   -5.5820   16.2470 O.2   198  SER198     -0.2866
    147  CB        15.6450   -7.9280   17.4550 C.3   198  SER198      0.2089
    148  OG        15.4910   -9.3520   17.5800 O.3   198  SER198     -0.2183
    149  N         14.2610   -3.7680   22.3800 N.3   218  VAL218     -0.1231
    150  CA        13.8740   -5.1880   22.3670 C.3   218  VAL218      0.1692
    151  C         15.1850   -5.9660   22.1020 C.2   218  VAL218      0.2593
    152  O         15.8380   -5.6530   21.1130 O.2   218  VAL218     -0.2718
    153  CB        12.8490   -5.5680   21.2640 C.3   218  VAL218      0.0266
    154  CG1       12.4460   -7.0870   21.2730 C.3   218  VAL218      0.0020
    155  CG2       11.6490   -4.7140   21.0970 C.3   218  VAL218      0.0020
    156  N         15.5290   -6.8680   23.0590 N.am  219  SER219     -0.1938
    157  CA        16.7810   -7.5910   22.9940 C.3   219  SER219      0.2055
    158  C         16.7710   -9.0970   22.8120 C.2   219  SER219      0.2643
    159  O         17.2870   -9.6510   21.8840 O.2   219  SER219     -0.2714
    160  CB        17.5160   -7.4010   24.3580 C.3   219  SER219      0.2130
    161  OG        18.8870   -7.1270   24.0390 O.3   219  SER219     -0.2179
    162  N         16.3060   -9.7030   23.8930 N.am  220  TRP220     -0.1959
    163  CA        16.2230  -11.1440   24.1210 C.3   220  TRP220      0.1771
    164  C         15.1860  -11.4760   25.1690 C.2   220  TRP220      0.2620
    165  O         14.4980  -10.7210   25.9040 O.2   220  TRP220     -0.2715
    166  CB        17.6200  -11.6760   24.4340 C.3   220  TRP220      0.0590
    167  CG        18.1000  -11.2360   25.7880 C.ar  220  TRP220      0.0006
    168  CD1       18.8230  -10.0870   26.1070 C.ar  220  TRP220      0.0946
    169  CD2       17.9900  -11.9690   27.0140 C.ar  220  TRP220      0.0152
    170  NE1       19.0770  -10.0200   27.4210 N.ar  220  TRP220     -0.2442
    171  CE2       18.5840  -11.1700   28.0090 C.ar  220  TRP220      0.0810
    172  CE3       17.4100  -13.1770   27.3260 C.ar  220  TRP220      0.0012
    173  CZ2       18.4990  -11.5320   29.3420 C.ar  220  TRP220      0.0191
    174  CZ3       17.2480  -13.5460   28.6270 C.ar  220  TRP220      0.0001
    175  CH2       17.7840  -12.6780   29.6160 C.ar  220  TRP220      0.0015
    176  N         15.0040  -12.7760   25.2190 N.am  221  GLY221     -0.1940
    177  CA        14.0440  -13.4900   26.0370 C.3   221  GLY221      0.2014
    178  C         14.0160  -14.9450   25.5550 C.2   221  GLY221      0.2639
    179  O         14.6640  -15.3850   24.5870 O.2   221  GLY221     -0.2714
    180  N         13.2790  -15.6830   26.3740 N.am  222  GLU222     -0.1963
    181  CA        13.0250  -17.1450   26.1920 C.3   222  GLU222      0.1733
    182  C         11.5550  -17.4150   25.8450 C.2   222  GLU222      0.2617
    183  O         10.5730  -17.3220   26.6340 O.2   222  GLU222     -0.2715
    184  CB        13.3910  -17.7500   27.5530 C.3   222  GLU222      0.0429
    185  CG        14.8580  -17.5030   27.9070 C.3   222  GLU222      0.1163
    186  CD        15.6780  -18.6620   27.3790 C.2   222  GLU222      0.3649
    187  OE1       15.1510  -19.6240   26.7670 O.co2 222  GLU222     -0.2457
    188  OE2       16.9040  -18.6090   27.5260 O.co2 222  GLU222     -0.2457
    189  N         11.3900  -17.8390   24.6330 N.am  223  GLY223     -0.1940
    190  CA        10.0710  -18.0970   23.9970 C.3   223  GLY223      0.2014
    191  C          9.4380  -16.7130   23.7360 C.2   223  GLY223      0.2639
    192  O         10.1240  -15.7370   23.5730 O.2   223  GLY223     -0.2714
    193  N          8.1310  -16.7550   23.6380 N.am  224  CYS224     -0.1967
    194  CA         7.3470  -15.5100   23.4090 C.3   224  CYS224      0.1712
    195  C          6.0960  -15.7340   24.2780 C.2   224  CYS224      0.2296
    196  O          5.5030  -16.8610   24.3270 O.2   224  CYS224     -0.2864
    197  CB         7.0600  -15.1780   21.9710 C.3   224  CYS224      0.0983
    198  SG         8.4800  -15.0560   20.8510 S.3   224  CYS224     -0.0798
    199  N          7.9980  -15.7960   32.4470 N.3   229  LYS229     -0.1227
    200  CA         9.0820  -15.3650   31.5390 C.3   229  LYS229      0.1736
    201  C          8.7290  -13.9630   31.0670 C.2   229  LYS229      0.2595
    202  O          7.5120  -13.7370   31.0340 O.2   229  LYS229     -0.2718
    203  CB         9.5630  -16.3590   30.4880 C.3   229  LYS229      0.0541
    204  CG        10.7010  -17.2300   31.0700 C.2   229  LYS229     -0.0272
    205  CD        10.9360  -18.5900   30.6270 C.2   229  LYS229     -0.0103
    206  CE        12.0350  -19.4200   31.2390 C.3   229  LYS229      0.1350
    207  NZ        13.4000  -19.0660   30.6790 N.3   229  LYS229     -0.1262
    208  N          9.6710  -13.0540   30.9610 N.am  230  TYR230     -0.1962
    209  CA         9.8820  -11.6760   30.6850 C.3   230  TYR230      0.1771
    210  C         10.7120  -11.3220   29.4380 C.2   230  TYR230      0.2620
    211  O         11.5450  -12.0520   28.8370 O.2   230  TYR230     -0.2715
    212  CB        10.6210  -10.9810   31.9430 C.3   230  TYR230      0.0574
    213  CG         9.7760  -11.3280   33.1660 C.ar  230  TYR230     -0.0198
    214  CD1        9.9820  -12.5130   33.8880 C.ar  230  TYR230     -0.0009
    215  CD2        8.5890  -10.6280   33.3190 C.ar  230  TYR230     -0.0009
    216  CE1        9.0410  -12.9130   34.8640 C.ar  230  TYR230      0.0417
    217  CE2        7.6290  -10.9720   34.2960 C.ar  230  TYR230      0.0417
    218  CZ         7.9070  -12.1560   35.0140 C.ar  230  TYR230      0.1957
    219  OH         6.9470  -12.4230   35.9330 O.3   230  TYR230     -0.2866
    220  N         10.4870  -10.0710   28.9680 N.am  231  GLY231     -0.1940
    221  CA        11.2650   -9.6870   27.7480 C.3   231  GLY231      0.2014
    222  C         12.3510   -8.7540   28.3370 C.2   231  GLY231      0.2639
    223  O         11.9520   -8.1750   29.3460 O.2   231  GLY231     -0.2714
    224  N         13.5080   -8.8140   27.7860 N.am  232  PHE232     -0.1959
    225  CA        14.6750   -8.0470   28.1900 C.3   232  PHE232      0.1771
    226  C         14.9820   -7.0900   27.0360 C.2   232  PHE232      0.2619
    227  O         14.8800   -7.2470   25.7960 O.2   232  PHE232     -0.2715
    228  CB        15.8640   -8.7810   28.7610 C.3   232  PHE232      0.0574
    229  CG        15.6260   -9.5060   30.0260 C.ar  232  PHE232     -0.0200
    230  CD1       14.7980  -10.6260   30.0420 C.ar  232  PHE232     -0.0042
    231  CD2       16.3220   -9.1440   31.2390 C.ar  232  PHE232     -0.0042
    232  CE1       14.4570  -11.3230   31.1960 C.ar  232  PHE232     -0.0003
    233  CE2       16.0590   -9.8890   32.3980 C.ar  232  PHE232     -0.0003
    234  CZ        15.0510  -10.8540   32.4070 C.ar  232  PHE232     -0.0000
    235  N         15.2820   -5.9290   27.6280 N.am  233  TYR233     -0.1974
    236  CA        15.5420   -4.6990   26.8880 C.3   233  TYR233      0.1639
    237  C         16.7930   -3.9890   27.3130 C.2   233  TYR233      0.2290
    238  O         16.9610   -3.7470   28.5400 O.2   233  TYR233     -0.2864
    239  CB        14.3090   -3.8260   27.2790 C.3   233  TYR233      0.0560
    240  CG        12.9630   -4.3610   26.8750 C.ar  233  TYR233     -0.0198
    241  CD1       12.1540   -5.0760   27.8160 C.ar  233  TYR233     -0.0009
    242  CD2       12.5040   -4.2020   25.5530 C.ar  233  TYR233     -0.0009
    243  CE1       10.9030   -5.6130   27.4400 C.ar  233  TYR233      0.0417
    244  CE2       11.2490   -4.6850   25.1880 C.ar  233  TYR233      0.0417
    245  CZ        10.4930   -5.4240   26.0980 C.ar  233  TYR233      0.1957
    246  OH         9.2580   -5.8820   25.6730 O.3   233  TYR233     -0.2866
@<TRIPOS>BOND
     1    38    39    1
     2    38    37    1
     3    38    41    1
     4    39    40    2
     5    26    25    2
     6    42    43    1
     7    42    41    1
     8    43    44    1
     9    25    24    1
    10    44    45    1
    11   137   136   ar
    12    24    27    1
    13    24    23    1
    14    27    28    1
    15   140   141    1
    16   140   139    1
    17   142   141    2
    18   136   135    1
    19   136   138   ar
    20    14    13    2
    21    11    12    1
    22   135   134    2
    23   133   132    2
    24    13    12    1
    25   139   132   am
    26    28    30   ar
    27    28    29   ar
    28     4     3    2
    29   132   131    1
    30    33    30   ar
    31    33    35   ar
    32    15    12    1
    33    15    16    1
    34    30    32   ar
    35     3     2    1
    36    29    31   ar
    37   146   145    2
    38   134   131    1
    39    35    36   ar
    40   131   130    1
    41    18    16   ar
    42    18    20   ar
    43    16    17   ar
    44    32    31   ar
    45    32    34   ar
    46   145   144    1
    47     2     1    1
    48     2     5    1
    49   147   148    1
    50   147   144    1
    51    36    34   ar
    52     8    10   ar
    53     8     6   ar
    54   143   144    1
    55   130   126   am
    56    20    21   ar
    57    17    19   ar
    58    10     9   ar
    59   127   126    2
    60     5     6    1
    61   126   125    1
    62     6     7   ar
    63    59    57   ar
    64    59    58   ar
    65    57    55   ar
    66   129   128    1
    67   129   198    1
    68    21    19   ar
    69    21    22    1
    70    55    54   ar
    71    55    53   ar
    72    54    52   ar
    73   128   125    1
    74    58    56   ar
    75     9     7   ar
    76   125   124    1
    77    53    56   ar
    78    53    51   ar
    79    52    51   ar
    80    51    50    1
    81   124   121   am
    82    50    47    1
    83   198   197    1
    84   155   153    1
    85   152   151    2
    86   153   154    1
    87   153   150    1
    88   121   120    1
    89   121   122    2
    90   120   123    1
    91   120   119    1
    92    47    48    1
    93    47    46    1
    94   159   158    2
    95    84    82    1
    96   197   194    1
    97   151   150    1
    98   151   156   am
    99    49    48    2
   100   150   149    1
   101   114   113    2
   102   158   157    1
   103   158   162   am
   104   119   113   am
   105   157   156    1
   106   157   160    1
   107   113   112    1
   108    83    82    1
   109    82    81    1
   110   194   193    1
   111   194   195    1
   112   192   191    2
   113   193   191   am
   114   191   190    1
   115   162   163    1
   116   190   189    1
   117    81    78    1
   118   161   160    1
   119   163   166    1
   120   163   164    1
   121   195   196    2
   122   166   167    1
   123   112   111    1
   124   112   115    1
   125   179   178    2
   126   189   182   am
   127    78    79    1
   128    78    77    1
   129   115   116    1
   130   164   176   am
   131   164   165    2
   132   244   242   ar
   133   244   245   ar
   134   176   177    1
   135    60    61    1
   136   117   116   ar
   137    80    79    2
   138   116   118   ar
   139   242   240   ar
   140   178   177    1
   141   178   180   am
   142   246   245    1
   143    77    71   am
   144   167   168   ar
   145   167   169   ar
   146   227   226    2
   147   182   181    1
   148   182   183    2
   149   245   243   ar
   150   168   170   ar
   151   181   180    1
   152   181   184    1
   153    61    62    1
   154    61    64    1
   155    71    72    2
   156    71    70    1
   157   187   186   ar
   158    62    63    2
   159    62    69   am
   160   240   239    1
   161   240   241   ar
   162   236   239    1
   163   236   237    1
   164   236   235    1
   165   169   172   ar
   166   169   171   ar
   167   226   235   am
   168   226   225    1
   169    69    70    1
   170   237   238    2
   171   172   174   ar
   172   186   188   ar
   173   186   185    1
   174   170   171   ar
   175   243   241   ar
   176   184   185    1
   177    70    73    1
   178   221   222    1
   179   221   220    1
   180   224   225    1
   181   224   222   am
   182    64    65    1
   183   171   173   ar
   184   225   228    1
   185   222   223    2
   186   174   175   ar
   187   110   108    1
   188   228   229    1
   189    75    74    2
   190   211   210    2
   191   220   210   am
   192    65    66    1
   193    73    74    1
   194   173   175   ar
   195    74    76   am
   196   210   209    1
   197   108   107    1
   198   109   107    1
   199   229   230   ar
   200   229   231   ar
   201   230   232   ar
   202    67    66   ar
   203    66    68   ar
   204   203   204    1
   205   203   200    1
   206   205   204    2
   207   205   206    1
   208   207   206    1
   209   209   208    1
   210   209   212    1
   211   107   104    1
   212   208   201   am
   213   202   201    2
   214   201   200    1
   215   232   234   ar
   216   231   233   ar
   217   200   199    1
   218   212   213    1
   219   104   103    1
   220   104   105    1
   221    90    89    1
   222   233   234   ar
   223   103    94   am
   224   101   100    1
   225   105   106    2
   226    89    91    1
   227    89    86    1
   228   213   215   ar
   229   213   214   ar
   230   215   217   ar
   231    94    95    2
   232    94    93    1
   233    98    97    1
   234    98    99    1
   235    96    93    1
   236    96    97    1
   237    92    93    1
   238    92    87   am
   239   214   216   ar
   240   100    99    2
   241   100   102    1
   242    86    87    1
   243    86    85    1
   244   217   218   ar
   245    87    88    2
   246   216   218   ar
   247   218   219    1
