@<TRIPOS>MOLECULE
tmp/1c4yB01.pdb
 232 233 0 0 0
SMALL
GASTEIGER

@<TRIPOS>ATOM
      1  N         27.9830   55.9980    4.1380 N.3    43  HIS43      -0.1241
      2  CA        28.9230   55.9580    2.9980 C.3    43  HIS43       0.1621
      3  C         28.6230   57.0520    1.9900 C.2    43  HIS43       0.2264
      4  O         29.4970   57.3420    1.1350 O.2    43  HIS43      -0.2867
      5  CB        29.1400   54.5650    2.3580 C.3    43  HIS43       0.0745
      6  CG        28.1110   54.0650    1.3930 C.ar   43  HIS43       0.0817
      7  ND1       27.2170   53.0680    1.6600 N.ar   43  HIS43      -0.2268
      8  CD2       27.8390   54.4160    0.1150 C.ar   43  HIS43       0.1154
      9  CE1       26.3970   52.9040    0.6130 C.ar   43  HIS43       0.1986
     10  NE2       26.7790   53.6900   -0.3420 N.ar   43  HIS43      -0.2212
     11  N         33.5750   58.4320    3.4740 N.3    47  TYR47      -0.1241
     12  CA        34.3590   57.3320    2.9030 C.3    47  TYR47       0.1605
     13  C         35.8160   57.7750    2.7100 C.2    47  TYR47       0.2264
     14  O         36.3110   58.0250    1.5970 O.2    47  TYR47      -0.2867
     15  CB        33.7100   56.6670    1.6750 C.3    47  TYR47       0.0534
     16  CG        34.3380   55.2760    1.4930 C.ar   47  TYR47      -0.0201
     17  CD1       34.2320   54.3550    2.5460 C.ar   47  TYR47      -0.0009
     18  CD2       35.1280   54.9530    0.3880 C.ar   47  TYR47      -0.0009
     19  CE1       34.8010   53.0960    2.4210 C.ar   47  TYR47       0.0417
     20  CE2       35.7100   53.7090    0.2680 C.ar   47  TYR47       0.0417
     21  CZ        35.5140   52.7780    1.2750 C.ar   47  TYR47       0.1957
     22  OH        36.1100   51.5400    1.1780 O.3    47  TYR47      -0.2866
     23  N         37.9850   57.3550   -0.0520 N.3    50  TRP50      -0.1241
     24  CA        37.6440   58.0430   -1.3330 C.3    50  TRP50       0.1605
     25  C         37.7680   59.5480   -1.2080 C.2    50  TRP50       0.2264
     26  O         37.5050   60.3440   -2.1320 O.2    50  TRP50      -0.2867
     27  CB        36.2950   57.5100   -1.8300 C.3    50  TRP50       0.0550
     28  CG        36.4310   56.1070   -2.3540 C.ar   50  TRP50       0.0003
     29  CD1       37.5570   55.3170   -2.2880 C.ar   50  TRP50       0.0946
     30  CD2       35.4390   55.3100   -3.0130 C.ar   50  TRP50       0.0152
     31  NE1       37.3440   54.1330   -2.9430 N.ar   50  TRP50      -0.2442
     32  CE2       36.0430   54.0830   -3.3550 C.ar   50  TRP50       0.0810
     33  CE3       34.1120   55.5210   -3.3390 C.ar   50  TRP50       0.0012
     34  CZ2       35.3480   53.0580   -3.9770 C.ar   50  TRP50       0.0191
     35  CZ3       33.4230   54.4860   -3.9500 C.ar   50  TRP50       0.0001
     36  CH2       34.0280   53.2880   -4.2910 C.ar   50  TRP50       0.0015
     37  N         36.0740   61.1570    0.8570 N.3    52  LYS52      -0.1245
     38  CA        34.6430   61.5680    0.9290 C.3    52  LYS52       0.1561
     39  C         34.2330   61.8800    2.3650 C.2    52  LYS52       0.2260
     40  O         34.0700   60.9980    3.2270 O.2    52  LYS52      -0.2867
     41  CB        33.7610   60.5050    0.3210 C.3    52  LYS52       0.0271
     42  CG        32.3260   60.7710   -0.0840 C.3    52  LYS52       0.0035
     43  CD        31.6760   59.4600   -0.5600 C.3    52  LYS52       0.0206
     44  CE        30.4390   59.6510   -1.4180 C.3    52  LYS52       0.1093
     45  NZ        29.7780   58.3360   -1.7450 N.3    52  LYS52      -0.1314
     46  N         33.4170   51.6520    7.9480 N.3    92  TRP92      -0.1227
     47  CA        33.9300   51.9350    6.5970 C.3    92  TRP92       0.1737
     48  C         35.2710   51.2250    6.4490 C.2    92  TRP92       0.2595
     49  O         35.5840   50.8610    5.3040 O.2    92  TRP92      -0.2718
     50  CB        34.0740   53.4170    6.2830 C.3    92  TRP92       0.0564
     51  CG        34.9790   54.1290    7.2170 C.ar   92  TRP92       0.0003
     52  CD1       34.6680   54.7570    8.3840 C.ar   92  TRP92       0.0946
     53  CD2       36.3950   54.2370    7.0770 C.ar   92  TRP92       0.0152
     54  NE1       35.7960   55.2690    8.9800 N.ar   92  TRP92      -0.2442
     55  CE2       36.8660   54.9570    8.1950 C.ar   92  TRP92       0.0810
     56  CE3       37.2860   53.8220    6.1010 C.ar   92  TRP92       0.0012
     57  CZ2       38.2110   55.2760    8.3510 C.ar   92  TRP92       0.0191
     58  CZ3       38.6170   54.1140    6.2420 C.ar   92  TRP92       0.0001
     59  CH2       39.0590   54.8470    7.3370 C.ar   92  TRP92       0.0015
     60  N         35.9570   51.0150    7.5680 N.am   93  ARG93      -0.1966
     61  CA        37.2570   50.3240    7.5060 C.3    93  ARG93       0.1729
     62  C         37.1500   48.9290    6.9220 C.2    93  ARG93       0.2616
     63  O         37.8220   48.5750    5.9500 O.2    93  ARG93      -0.2715
     64  CB        37.9880   50.2280    8.8490 C.3    93  ARG93       0.0348
     65  CG        38.8680   51.4400    9.1760 C.3    93  ARG93       0.0492
     66  CD        39.3690   51.4120   10.5900 C.3    93  ARG93       0.2205
     67  NE        39.9470   52.7560   10.9640 N.pl3  93  ARG93      -0.0865
     68  CZ        41.0320   53.1850   10.2760 C.cat  93  ARG93       0.5346
     69  NH1       41.4980   52.4340    9.2690 N.pl3  93  ARG93       0.1354
     70  NH2       41.6710   54.2910   10.6560 N.pl3  93  ARG93       0.1354
     71  N         36.2110   48.1600    7.4440 N.am   94  GLU94      -0.1963
     72  CA        36.1290   46.7470    7.0520 C.3    94  GLU94       0.1733
     73  C         34.9770   46.2890    6.2290 C.2    94  GLU94       0.2616
     74  O         35.2420   45.8640    5.0830 O.2    94  GLU94      -0.2715
     75  CB        36.2420   45.9330    8.3440 C.3    94  GLU94       0.0429
     76  CG        36.5350   44.4620    8.2720 C.3    94  GLU94       0.1163
     77  CD        35.8470   43.6880    9.3800 C.2    94  GLU94       0.3649
     78  OE1       35.6370   44.1170   10.5020 O.co2  94  GLU94      -0.2457
     79  OE2       35.5440   42.5600    8.9060 O.co2  94  GLU94      -0.2457
     80  N         33.7380   46.3300    6.7150 N.am   95  ASN95      -0.1958
     81  CA        32.6030   45.8260    5.9200 C.3    95  ASN95       0.1819
     82  C         31.5250   46.8770    5.7580 C.2    95  ASN95       0.2621
     83  O         30.4190   46.4580    5.3580 O.2    95  ASN95      -0.2715
     84  CB        32.0510   44.5480    6.5870 C.3    95  ASN95       0.1195
     85  CG        32.1460   44.7710    8.0960 C.2    95  ASN95       0.2630
     86  OD1       32.2830   45.9300    8.5260 O.2    95  ASN95      -0.2716
     87  ND2       32.1170   43.6870    8.8600 N.am   95  ASN95      -0.0877
     88  N         31.8340   48.1330    5.9820 N.am   96  LEU96      -0.1977
     89  CA        30.8010   49.1990    5.8320 C.3    96  LEU96       0.1596
     90  C         29.6590   48.8640    6.8110 C.2    96  LEU96       0.2287
     91  O         28.4830   49.0600    6.5580 O.2    96  LEU96      -0.2864
     92  CB        30.3830   49.3170    4.3810 C.3    96  LEU96       0.0297
     93  CG        30.9110   50.3960    3.4620 C.3    96  LEU96       0.0022
     94  CD1       30.2070   50.4260    2.1060 C.3    96  LEU96       0.0001
     95  CD2       30.6760   51.7470    4.1540 C.3    96  LEU96       0.0001
     96  N         29.7260   36.5390   -1.4910 N.3   173  THR173     -0.1203
     97  CA        30.8570   37.3610   -1.2060 C.3   173  THR173      0.1994
     98  C         31.8400   36.8840   -0.1420 C.2   173  THR173      0.2618
     99  O         31.5480   36.1320    0.7940 O.2   173  THR173     -0.2717
    100  CB        30.3390   38.7650   -0.5940 C.3   173  THR173      0.1784
    101  OG1       31.4960   39.6330   -0.6370 O.3   173  THR173     -0.2211
    102  CG2       29.8240   38.5200    0.8260 C.3   173  THR173      0.0376
    103  N         32.9330   37.6230   -0.1740 N.am  174  ARG174     -0.1965
    104  CA        34.1700   37.5400    0.5840 C.3   174  ARG174      0.1729
    105  C         34.2330   38.5380    1.7290 C.2   174  ARG174      0.2616
    106  O         35.1870   38.5920    2.5330 O.2   174  ARG174     -0.2715
    107  CB        35.3080   37.7880   -0.4280 C.3   174  ARG174      0.0348
    108  CG        36.7320   37.5750    0.0350 C.3   174  ARG174      0.0492
    109  CD        37.4670   38.8810    0.1330 C.3   174  ARG174      0.2205
    110  NE        37.6970   39.4620   -1.2060 N.pl3 174  ARG174     -0.0865
    111  CZ        38.2680   40.6850   -1.2680 C.cat 174  ARG174      0.5346
    112  NH1       38.5520   41.2860   -2.4150 N.pl3 174  ARG174      0.1354
    113  NH2       38.5100   41.2940   -0.1110 N.pl3 174  ARG174      0.1354
    114  N         33.1870   39.3700    1.7730 N.am  175  ILE175     -0.1977
    115  CA        33.0580   40.4010    2.8260 C.3   175  ILE175      0.1596
    116  C         32.3790   39.7450    4.0420 C.2   175  ILE175      0.2287
    117  O         31.6330   38.7510    3.9550 O.2   175  ILE175     -0.2864
    118  CB        32.4190   41.7340    2.3320 C.3   175  ILE175      0.0276
    119  CG1       33.4860   42.6560    1.6640 C.3   175  ILE175      0.0022
    120  CG2       31.6700   42.5500    3.4290 C.3   175  ILE175      0.0022
    121  CD1       33.4530   42.6080    0.1070 C.3   175  ILE175      0.0001
    122  N         18.8070   45.4460  -10.1020 N.3   195  ASP195     -0.1225
    123  CA        19.5440   45.7580   -8.8610 C.3   195  ASP195      0.1805
    124  C         19.6110   47.2820   -8.7270 C.2   195  ASP195      0.2598
    125  O         19.1690   47.9690   -9.6620 O.2   195  ASP195     -0.2718
    126  CB        20.8960   45.0940   -8.9470 C.3   195  ASP195      0.1424
    127  CG        21.9680   45.2410   -7.9170 C.2   195  ASP195      0.3668
    128  OD1       23.1420   44.9140   -8.2030 O.co2 195  ASP195     -0.2456
    129  OD2       21.7170   45.6650   -6.7780 O.co2 195  ASP195     -0.2456
    130  N         20.1030   47.6990   -7.5640 N.am  196  ALA196     -0.1966
    131  CA        20.3690   49.1420   -7.3220 C.3   196  ALA196      0.1728
    132  C         21.7290   49.3520   -7.9800 C.2   196  ALA196      0.2616
    133  O         22.4700   48.3340   -8.1150 O.2   196  ALA196     -0.2715
    134  CB        20.4200   49.4430   -5.8260 C.3   196  ALA196      0.0334
    135  N         22.0370   50.5110   -8.4490 N.am  197  CYS197     -0.1954
    136  CA        23.3840   50.7040   -9.0450 C.3   197  CYS197      0.1843
    137  C         23.9800   51.8960   -8.3240 C.2   197  CYS197      0.2625
    138  O         23.5390   52.2880   -7.2610 O.2   197  CYS197     -0.2714
    139  CB        23.4250   50.9110  -10.5370 C.3   197  CYS197      0.0997
    140  SG        25.0240   50.5380  -11.3420 S.3   197  CYS197     -0.0797
    141  N         24.9670   52.4150   -8.9940 N.am  198  GLU198     -0.1977
    142  CA        25.6960   53.5980   -8.5050 C.3   198  GLU198      0.1602
    143  C         24.7670   54.8030   -8.5900 C.2   198  GLU198      0.2287
    144  O         24.1260   54.9910   -9.6560 O.2   198  GLU198     -0.2864
    145  CB        26.8930   53.8330   -9.4080 C.3   198  GLU198      0.0415
    146  CG        27.6520   55.0870   -9.0070 C.3   198  GLU198      0.1163
    147  CD        29.1410   54.9050   -8.9630 C.2   198  GLU198      0.3649
    148  OE1       29.6830   53.8040   -9.0430 O.co2 198  GLU198     -0.2457
    149  OE2       29.7270   56.0110   -8.8490 O.co2 198  GLU198     -0.2457
    150  N         22.6570   54.3220   -3.9230 N.3   201  SER201     -0.1217
    151  CA        23.0350   54.0880   -2.5230 C.3   201  SER201      0.1889
    152  C         22.2860   55.0390   -1.5870 C.2   201  SER201      0.2288
    153  O         22.0040   56.2020   -1.9360 O.2   201  SER201     -0.2866
    154  CB        24.5410   54.2310   -2.2630 C.3   201  SER201      0.2089
    155  OG        25.3960   53.8230   -3.2890 O.3   201  SER201     -0.2183
    156  N         19.9150   51.1470    0.7240 N.3   221  VAL221     -0.1231
    157  CA        20.7990   50.5130   -0.3130 C.3   221  VAL221      0.1692
    158  C         22.2590   50.7600    0.0930 C.2   221  VAL221      0.2593
    159  O         22.7240   51.9240    0.1630 O.2   221  VAL221     -0.2718
    160  CB        20.5000   51.0790   -1.7270 C.3   221  VAL221      0.0266
    161  CG1       21.1100   50.2090   -2.8390 C.3   221  VAL221      0.0020
    162  CG2       19.0250   51.4010   -1.9760 C.3   221  VAL221      0.0020
    163  N         23.0000   49.6830    0.2540 N.am  222  SER222     -0.1938
    164  CA        24.3820   49.7130    0.7660 C.3   222  SER222      0.2055
    165  C         25.4990   49.4190   -0.2120 C.2   222  SER222      0.2643
    166  O         25.7210   50.2380   -1.1410 O.2   222  SER222     -0.2714
    167  CB        24.5010   48.7280    1.9700 C.3   222  SER222      0.2130
    168  OG        25.6310   49.0750    2.7530 O.3   222  SER222     -0.2179
    169  N         26.3080   48.3920    0.0970 N.am  223  TRP223     -0.1959
    170  CA        27.4300   48.0240   -0.7930 C.3   223  TRP223      0.1771
    171  C         26.9910   46.8310   -1.6410 C.2   223  TRP223      0.2620
    172  O         25.9910   46.1740   -1.3160 O.2   223  TRP223     -0.2715
    173  CB        28.6970   47.6850   -0.0290 C.3   223  TRP223      0.0590
    174  CG        28.5330   46.5820    0.9590 C.ar  223  TRP223      0.0006
    175  CD1       28.0470   46.6940    2.2380 C.ar  223  TRP223      0.0946
    176  CD2       28.8280   45.1880    0.7810 C.ar  223  TRP223      0.0152
    177  NE1       28.0040   45.4600    2.8560 N.ar  223  TRP223     -0.2442
    178  CE2       28.4350   44.5190    1.9700 C.ar  223  TRP223      0.0810
    179  CE3       29.3430   44.4470   -0.2770 C.ar  223  TRP223      0.0012
    180  CZ2       28.5980   43.1510    2.1410 C.ar  223  TRP223      0.0191
    181  CZ3       29.4610   43.0870   -0.1340 C.ar  223  TRP223      0.0001
    182  CH2       29.1310   42.4550    1.0620 C.ar  223  TRP223      0.0015
    183  N         27.7770   46.5310   -2.6480 N.am  224  GLY224     -0.1940
    184  CA        27.5590   45.3790   -3.5480 C.3   224  GLY224      0.2014
    185  C         28.8460   45.2810   -4.3960 C.2   224  GLY224      0.2642
    186  O         29.7260   46.1750   -4.2830 O.2   224  GLY224     -0.2714
    187  N         28.9160   44.1840   -5.1600 N.am  225  GLU225     -0.1917
    188  CA        30.0420   43.9930   -6.1040 C.3   225  GLU225      0.1949
    189  C         29.4930   44.2310   -7.5170 C.2   225  GLU225      0.2659
    190  O         28.8760   43.3810   -8.1670 O.2   225  GLU225     -0.2711
    191  CB        30.7190   42.6550   -5.9680 C.2   225  GLU225      0.0111
    192  CG        31.0300   42.1600   -4.5540 C.2   225  GLU225      0.0838
    193  CD        31.4110   40.7260   -4.3550 C.2   225  GLU225      0.3877
    194  OE1       32.2240   40.1460   -5.0760 O.co2 225  GLU225     -0.2406
    195  OE2       30.9330   40.1770   -3.3410 O.co2 225  GLU225     -0.2406
    196  N         29.7060   45.4800   -7.9520 N.am  226  GLY226     -0.1937
    197  CA        29.2120   45.9580   -9.2580 C.3   226  GLY226      0.2014
    198  C         27.6770   46.0030   -9.1180 C.2   226  GLY226      0.2639
    199  O         27.1470   45.9120   -7.9860 O.2   226  GLY226     -0.2714
    200  N         26.9850   46.1560  -10.2270 N.am  227  CYS227     -0.1967
    201  CA        25.5200   46.1960  -10.2910 C.3   227  CYS227      0.1712
    202  C         25.0790   45.0440  -11.1990 C.2   227  CYS227      0.2296
    203  O         25.7300   44.8100  -12.2350 O.2   227  CYS227     -0.2864
    204  CB        24.9580   47.5140  -10.8130 C.3   227  CYS227      0.0983
    205  SG        25.7490   49.0280  -10.1610 S.3   227  CYS227     -0.0798
    206  N         23.0100   42.3140   -3.8490 N.3   234  GLY234     -0.1210
    207  CA        23.0050   43.6890   -3.3620 C.3   234  GLY234      0.1956
    208  C         22.7440   43.6260   -1.8480 C.2   234  GLY234      0.2612
    209  O         21.9360   42.8350   -1.3670 O.2   234  GLY234     -0.2717
    210  N         23.4940   44.4390   -1.1560 N.am  235  PHE235     -0.1962
    211  CA        23.5420   44.5430    0.3120 C.3   235  PHE235      0.1771
    212  C         22.8000   45.7710    0.7960 C.2   235  PHE235      0.2619
    213  O         22.6130   46.7520    0.0740 O.2   235  PHE235     -0.2715
    214  CB        24.9730   44.3320    0.8230 C.3   235  PHE235      0.0574
    215  CG        25.3510   42.8740    0.9860 C.ar  235  PHE235     -0.0200
    216  CD1       25.7070   42.0970   -0.1200 C.ar  235  PHE235     -0.0042
    217  CD2       25.2730   42.2740    2.2520 C.ar  235  PHE235     -0.0042
    218  CE1       26.0390   40.7560    0.0410 C.ar  235  PHE235     -0.0003
    219  CE2       25.5690   40.9070    2.4160 C.ar  235  PHE235     -0.0003
    220  CZ        25.9600   40.1580    1.2950 C.ar  235  PHE235     -0.0000
    221  N         22.2420   45.6480    1.9770 N.am  236  TYR236     -0.1974
    222  CA        21.3210   46.5760    2.5880 C.3   236  TYR236      0.1639
    223  C         21.4210   46.7260    4.0970 C.2   236  TYR236      0.2290
    224  O         21.3460   45.7220    4.8260 O.2   236  TYR236     -0.2864
    225  CB        19.8320   46.0370    2.3730 C.3   236  TYR236      0.0560
    226  CG        19.5230   46.0790    0.8960 C.ar  236  TYR236     -0.0198
    227  CD1       19.6810   44.9970    0.0360 C.ar  236  TYR236     -0.0009
    228  CD2       19.2210   47.3300    0.3500 C.ar  236  TYR236     -0.0009
    229  CE1       19.4580   45.1400   -1.3330 C.ar  236  TYR236      0.0417
    230  CE2       18.9650   47.4720   -1.0140 C.ar  236  TYR236      0.0417
    231  CZ        19.1050   46.3680   -1.8570 C.ar  236  TYR236      0.1957
    232  OH        18.8550   46.5740   -3.1960 O.3   236  TYR236     -0.2866
@<TRIPOS>BOND
     1   203   202    2
     2   140   139    1
     3   140   205    1
     4   202   201    1
     5   204   201    1
     6   204   205    1
     7   139   136    1
     8   201   200    1
     9   200   198   am
    10   122   123    1
    11   125   124    2
    12   144   143    2
    13   145   146    1
    14   145   142    1
    15   197   198    1
    16   197   196    1
    17   198   199    2
    18   136   135    1
    19   136   137    1
    20   148   147   ar
    21   146   147    1
    22   141   142    1
    23   141   137   am
    24   147   149   ar
    25   126   123    1
    26   126   127    1
    27   123   124    1
    28   124   130   am
    29   143   142    1
    30   135   132   am
    31   137   138    2
    32   128   127   ar
    33   190   189    2
    34   133   132    2
    35   132   131    1
    36   196   189   am
    37   127   129   ar
    38   130   131    1
    39   189   188    1
    40   131   134    1
    41   188   191    1
    42   188   187    1
    43   191   192    2
    44   187   185   am
    45   194   193   ar
    46   192   193    1
    47   185   186    2
    48   185   184    1
    49   193   195   ar
    50    36    34   ar
    51    36    35   ar
    52    34    32   ar
    53    35    33   ar
    54   150   151    1
    55   206   207    1
    56   184   183    1
    57   207   208    1
    58    32    30   ar
    59    32    31   ar
    60    33    30   ar
    61   155   154    1
    62   232   231    1
    63    30    28   ar
    64    31    29   ar
    65   161   160    1
    66   183   171   am
    67   151   154    1
    68   151   152    1
    69   112   111    1
    70    28    29   ar
    71    28    27    1
    72    26    25    2
    73   162   160    1
    74   153   152    2
    75   231   229   ar
    76   231   230   ar
    77   208   209    2
    78   208   210   am
    79    27    24    1
    80    45    44    1
    81   160   157    1
    82   171   172    2
    83   171   170    1
    84    96    97    1
    85    44    43    1
    86   229   227   ar
    87    24    25    1
    88    24    23    1
    89   111   110    2
    90   111   113    1
    91    97   100    1
    92    97    98    1
    93   110   109    1
    94   210   211    1
    95   166   165    2
    96   230   228   ar
    97   170   173    1
    98   170   169    1
    99   101   100    1
   100   100   102    1
   101    43    42    1
   102   107   108    1
   103   107   104    1
   104    10     8   ar
   105    10     9   ar
   106   157   158    1
   107   157   156    1
   108   179   181   ar
   109   179   176   ar
   110   165   169   am
   111   165   164    1
   112   103    98   am
   113   103   104    1
   114    98    99    2
   115   181   182   ar
   116   216   218   ar
   117   216   215   ar
   118    42    41    1
   119   173   174    1
   120   108   109    1
   121   227   226   ar
   122   218   220   ar
   123   213   212    2
   124   158   159    2
   125   158   163   am
   126   121   119    1
   127     8     6   ar
   128   163   164    1
   129    20    18   ar
   130    20    21   ar
   131   211   212    1
   132   211   214    1
   133    41    38    1
   134   228   226   ar
   135    18    16   ar
   136   104   105    1
   137     9     7   ar
   138   164   167    1
   139   176   174   ar
   140   176   178   ar
   141   212   221   am
   142   214   215    1
   143    37    38    1
   144   226   225    1
   145    38    39    1
   146   174   175   ar
   147   215   217   ar
   148   182   180   ar
   149     4     3    2
   150    22    21    1
   151    21    19   ar
   152   220   219   ar
   153     6     7   ar
   154     6     5    1
   155    16    15    1
   156    16    17   ar
   157    14    13    2
   158   119   118    1
   159    15    12    1
   160   105   114   am
   161   105   106    2
   162   114   115    1
   163   167   168    1
   164   178   180   ar
   165   178   177   ar
   166   221   222    1
   167     3     2    1
   168    94    93    1
   169   175   177   ar
   170   217   219   ar
   171   118   115    1
   172   118   120    1
   173     5     2    1
   174    39    40    2
   175   225   222    1
   176    19    17   ar
   177   222   223    1
   178    13    12    1
   179   115   116    1
   180    12    11    1
   181     2     1    1
   182    93    95    1
   183    93    92    1
   184   117   116    2
   185   223   224    2
   186    92    89    1
   187    74    73    2
   188    49    48    2
   189    83    82    2
   190    82    81    1
   191    82    88   am
   192    89    88    1
   193    89    90    1
   194    81    84    1
   195    81    80    1
   196    63    62    2
   197    56    58   ar
   198    56    53   ar
   199    73    80   am
   200    73    72    1
   201    58    59   ar
   202    50    47    1
   203    50    51    1
   204    48    47    1
   205    48    60   am
   206    91    90    2
   207    84    85    1
   208    47    46    1
   209    62    71   am
   210    62    61    1
   211    72    71    1
   212    72    75    1
   213    53    51   ar
   214    53    55   ar
   215    51    52   ar
   216    59    57   ar
   217    61    60    1
   218    61    64    1
   219    85    86    2
   220    85    87   am
   221    55    57   ar
   222    55    54   ar
   223    76    75    1
   224    76    77    1
   225    52    54   ar
   226    64    65    1
   227    79    77   ar
   228    65    66    1
   229    69    68    1
   230    77    78   ar
   231    68    70    1
   232    68    67    2
   233    66    67    1
