@<TRIPOS>MOLECULE
tmp/1c50A01.pdb
 118 119 0 0 0
SMALL
GASTEIGER

@<TRIPOS>ATOM
      1  N         11.7020   10.2270   47.5820 N.3    48  ARG48      -0.1245
      2  CA        13.0190    9.8380   48.0550 C.3    48  ARG48       0.1563
      3  C         12.9680    8.5280   48.8240 C.2    48  ARG48       0.2260
      4  O         13.9380    7.7780   48.8630 O.2    48  ARG48      -0.2867
      5  CB        13.5850   10.9250   48.9480 C.3    48  ARG48       0.0307
      6  CG        14.7530   10.4880   49.8110 C.3    48  ARG48       0.0489
      7  CD        15.2090   11.6360   50.7080 C.3    48  ARG48       0.2205
      8  NE        15.1250   11.2470   52.1090 N.pl3  48  ARG48      -0.0865
      9  CZ        15.0800   12.1290   53.1080 C.cat  48  ARG48       0.5346
     10  NH1       15.0970   13.4460   52.8520 N.pl3  48  ARG48       0.1354
     11  NH2       14.9990   11.7220   54.3730 N.pl3  48  ARG48       0.1354
     12  N         13.8070    5.2510   46.9110 N.3    51  LEU51      -0.1231
     13  CA        15.1150    4.8030   46.4760 C.3    51  LEU51       0.1693
     14  C         16.0810    4.3990   47.5820 C.2    51  LEU51       0.2591
     15  O         17.1660    3.8880   47.3100 O.2    51  LEU51      -0.2718
     16  CB        15.7340    5.8130   45.4820 C.3    51  LEU51       0.0284
     17  CG        16.3440    7.1990   45.6670 C.3    51  LEU51       0.0019
     18  CD1       17.1060    7.4870   44.3940 C.3    51  LEU51       0.0001
     19  CD2       15.3180    8.2860   45.8620 C.3    51  LEU51       0.0001
     20  N         15.6670    4.5440   48.8390 N.am   52  VAL52      -0.1980
     21  CA        16.5660    4.1630   49.9300 C.3    52  VAL52       0.1595
     22  C         16.7600    2.6470   49.9390 C.2    52  VAL52       0.2287
     23  O         17.8580    2.1600   50.2100 O.2    52  VAL52      -0.2864
     24  CB        16.0880    4.7160   51.3610 C.3    52  VAL52       0.0276
     25  CG1       14.6750    5.2150   51.3090 C.3    52  VAL52       0.0022
     26  CG2       16.1810    3.6460   52.4250 C.3    52  VAL52       0.0022
     27  N         19.1190    1.9370   47.0170 N.3    55  TRP55      -0.1241
     28  CA        20.4310    2.4900   47.3000 C.3    55  TRP55       0.1605
     29  C         21.2340    1.5420   48.1850 C.2    55  TRP55       0.2264
     30  O         22.3980    1.2400   47.9060 O.2    55  TRP55      -0.2867
     31  CB        20.2940    3.8530   47.9890 C.3    55  TRP55       0.0550
     32  CG        21.5530    4.7020   47.9080 C.ar   55  TRP55       0.0003
     33  CD1       22.6920    4.4180   47.2020 C.ar   55  TRP55       0.0946
     34  CD2       21.7770    5.9760   48.5310 C.ar   55  TRP55       0.0152
     35  NE1       23.6020    5.4370   47.3420 N.ar   55  TRP55      -0.2442
     36  CE2       23.0700    6.4100   48.1490 C.ar   55  TRP55       0.0810
     37  CE3       21.0110    6.8010   49.3690 C.ar   55  TRP55       0.0012
     38  CZ2       23.6160    7.6290   48.5780 C.ar   55  TRP55       0.0191
     39  CZ3       21.5540    8.0190   49.7950 C.ar   55  TRP55       0.0001
     40  CH2       22.8440    8.4150   49.4000 C.ar   55  TRP55       0.0015
     41  N         18.1820   20.6480   51.5740 N.3   175  ASN175     -0.1226
     42  CA        18.3850   19.7960   50.4040 C.3   175  ASN175      0.1770
     43  C         17.9810   18.3940   50.8240 C.2   175  ASN175      0.2439
     44  O         18.7570   17.6990   51.4770 O.2   175  ASN175     -0.2733
     45  CB        19.8580   19.7950   49.9750 C.3   175  ASN175      0.1168
     46  CG        20.1280   18.8650   48.7960 C.2   175  ASN175      0.2627
     47  OD1       19.2070   18.4060   48.1240 O.2   175  ASN175     -0.2716
     48  ND2       21.4010   18.5900   48.5420 N.am  175  ASN175     -0.0877
     49  N         16.7690   17.9530   50.4480 N.am  176  PRO176     -0.2718
     50  CA        16.3110   16.6100   50.8250 C.3   176  PRO176      0.1535
     51  C         17.0610   15.4540   50.1590 C.2   176  PRO176      0.2599
     52  O         16.9690   14.3110   50.5990 O.2   176  PRO176     -0.2715
     53  CB        14.8290   16.6090   50.4470 C.3   176  PRO176      0.0310
     54  CG        14.6990   17.6440   49.3710 C.3   176  PRO176      0.0237
     55  CD        15.7690   18.6770   49.6360 C.3   176  PRO176      0.0939
     56  N         17.8320   15.7490   49.1230 N.am  177  TRP177     -0.1960
     57  CA        18.5100   14.6910   48.3840 C.3   177  TRP177      0.1771
     58  C         19.9030   14.3310   48.8470 C.2   177  TRP177      0.2620
     59  O         20.4760   13.3510   48.3710 O.2   177  TRP177     -0.2715
     60  CB        18.5310   15.0250   46.8920 C.3   177  TRP177      0.0590
     61  CG        17.2060   15.5010   46.3690 C.ar  177  TRP177      0.0006
     62  CD1       16.8890   16.7690   45.9910 C.ar  177  TRP177      0.0946
     63  CD2       16.0270   14.7140   46.1650 C.ar  177  TRP177      0.0152
     64  NE1       15.5880   16.8270   45.5550 N.ar  177  TRP177     -0.2442
     65  CE2       15.0340   15.5740   45.6430 C.ar  177  TRP177      0.0810
     66  CE3       15.7100   13.3560   46.3600 C.ar  177  TRP177      0.0012
     67  CZ2       13.7450   15.1310   45.3210 C.ar  177  TRP177      0.0191
     68  CZ3       14.4280   12.9120   46.0310 C.ar  177  TRP177      0.0001
     69  CH2       13.4600   13.8030   45.5260 C.ar  177  TRP177      0.0015
     70  N         20.4600   15.1100   49.7640 N.am  178  GLU178     -0.1963
     71  CA        21.7920   14.7940   50.2780 C.3   178  GLU178      0.1733
     72  C         21.7230   14.0910   51.6310 C.2   178  GLU178      0.2616
     73  O         20.8570   14.3650   52.4580 O.2   178  GLU178     -0.2715
     74  CB        22.6530   16.0500   50.4200 C.3   178  GLU178      0.0429
     75  CG        22.2560   16.9330   51.5820 C.3   178  GLU178      0.1163
     76  CD        23.0430   18.2300   51.6280 C.2   178  GLU178      0.3649
     77  OE1       23.8570   18.4780   50.7100 O.co2 178  GLU178     -0.2457
     78  OE2       22.8450   19.0080   52.5890 O.co2 178  GLU178     -0.2457
     79  N         22.6660   13.1890   51.8570 N.am  179  LYS179     -0.1963
     80  CA        22.7240   12.4400   53.1070 C.3   179  LYS179      0.1728
     81  C         24.0830   12.6740   53.7490 C.2   179  LYS179      0.2616
     82  O         25.0830   12.1670   53.2630 O.2   179  LYS179     -0.2715
     83  CB        22.5090   10.9490   52.8300 C.3   179  LYS179      0.0311
     84  CG        22.9570    9.9980   53.9360 C.3   179  LYS179      0.0038
     85  CD        21.9930   10.0080   55.1190 C.3   179  LYS179      0.0206
     86  CE        22.7310   10.2840   56.4190 C.3   179  LYS179      0.1093
     87  NZ        22.2260    9.4290   57.5170 N.3   179  LYS179     -0.1314
     88  N         24.1110   13.4530   54.8270 N.am  180  ALA180     -0.1977
     89  CA        25.3630   13.7430   55.5180 C.3   180  ALA180      0.1597
     90  C         25.8810   12.4520   56.1050 C.2   180  ALA180      0.2287
     91  O         25.1170   11.6680   56.6560 O.2   180  ALA180     -0.2864
     92  CB        25.1370   14.7580   56.6190 C.3   180  ALA180      0.0319
     93  N         28.5630   12.1690   58.5270 N.3   182  PRO182     -0.2116
     94  CA        29.5490   12.6560   59.5070 C.3   182  PRO182      0.1372
     95  C         30.5200   11.6060   60.0140 C.2   182  PRO182      0.2244
     96  O         31.6560   11.9020   60.3810 O.2   182  PRO182     -0.2868
     97  CB        28.6960   13.2450   60.6320 C.3   182  PRO182      0.0268
     98  CG        27.3000   12.8340   60.3410 C.3   182  PRO182      0.0207
     99  CD        27.1980   12.5830   58.8850 C.3   182  PRO182      0.0892
    100  N         28.9940   14.1640   51.9560 N.3   214  TYR214     -0.1241
    101  CA        27.5390   14.2090   51.8130 C.3   214  TYR214      0.1605
    102  C         27.2530   13.3880   50.5470 C.2   214  TYR214      0.2264
    103  O         27.7710   13.7130   49.4800 O.2   214  TYR214     -0.2867
    104  CB        27.0670   15.6440   51.5900 C.3   214  TYR214      0.0534
    105  CG        27.0030   16.4780   52.8340 C.ar  214  TYR214     -0.0201
    106  CD1       28.1470   17.0920   53.3330 C.ar  214  TYR214     -0.0009
    107  CD2       25.7900   16.6960   53.4880 C.ar  214  TYR214     -0.0009
    108  CE1       28.0900   17.9090   54.4450 C.ar  214  TYR214      0.0417
    109  CE2       25.7180   17.5130   54.6050 C.ar  214  TYR214      0.0417
    110  CZ        26.8710   18.1180   55.0750 C.ar  214  TYR214      0.1957
    111  OH        26.7950   18.9560   56.1570 O.3   214  TYR214     -0.2866
    112  N         22.0840   10.1850   46.0610 N.3   217  PRO217     -0.2116
    113  CA        21.8030    9.0130   45.2240 C.3   217  PRO217      0.1372
    114  C         21.6820    9.3500   43.7420 C.2   217  PRO217      0.2244
    115  O         21.1330   10.3940   43.3740 O.2   217  PRO217     -0.2868
    116  CB        20.4840    8.4860   45.7880 C.3   217  PRO217      0.0268
    117  CG        19.8270    9.7030   46.3790 C.3   217  PRO217      0.0207
    118  CD        20.9610   10.5080   46.9560 C.3   217  PRO217      0.0892
@<TRIPOS>BOND
     1   115   114    2
     2   114   113    1
     3    18    17    1
     4   113   116    1
     5   113   112    1
     6    67    69   ar
     7    67    65   ar
     8    16    17    1
     9    16    13    1
    10    69    68   ar
    11    64    65   ar
    12    64    62   ar
    13    65    63   ar
    14    17    19    1
    15   116   117    1
    16    62    61   ar
    17    68    66   ar
    18   112   118    1
    19    63    66   ar
    20    63    61   ar
    21    61    60    1
    22   117   118    1
    23    13    12    1
    24    13    14    1
    25    60    57    1
    26    27    28    1
    27    33    35   ar
    28    33    32   ar
    29    28    31    1
    30    28    29    1
    31    15    14    2
    32    35    36   ar
    33    14    20   am
    34     1     2    1
    35    30    29    2
    36    32    31    1
    37    32    34   ar
    38     2     3    1
    39     2     5    1
    40    47    46    2
    41    36    34   ar
    42    36    38   ar
    43    59    58    2
    44    57    58    1
    45    57    56    1
    46    34    37   ar
    47    48    46   am
    48    38    40   ar
    49    46    45    1
    50     3     4    2
    51    20    21    1
    52    58    70   am
    53     5     6    1
    54    56    51   am
    55    37    39   ar
    56    54    55    1
    57    54    53    1
    58    40    39   ar
    59   103   102    2
    60    55    49    1
    61    70    71    1
    62     6     7    1
    63    21    22    1
    64    21    24    1
    65    22    23    2
    66    45    42    1
    67    51    52    2
    68    51    50    1
    69    71    74    1
    70    71    72    1
    71    42    43    1
    72    42    41    1
    73    74    75    1
    74    53    50    1
    75    49    43   am
    76    49    50    1
    77   102   101    1
    78     7     8    1
    79    77    76   ar
    80    43    44    2
    81    25    24    1
    82    24    26    1
    83    75    76    1
    84   104   101    1
    85   104   105    1
    86    76    78   ar
    87    72    79   am
    88    72    73    2
    89   101   100    1
    90    79    80    1
    91     8     9    2
    92    83    80    1
    93    83    84    1
    94   105   106   ar
    95   105   107   ar
    96    10     9    1
    97    80    81    1
    98     9    11    1
    99    82    81    2
   100   106   108   ar
   101   107   109   ar
   102    81    88   am
   103    84    85    1
   104   108   110   ar
   105   109   110   ar
   106    88    89    1
   107   110   111    1
   108    85    86    1
   109    89    90    1
   110    89    92    1
   111    90    91    2
   112    86    87    1
   113    93    99    1
   114    93    94    1
   115    99    98    1
   116    94    95    1
   117    94    97    1
   118    95    96    2
   119    98    97    1
