@<TRIPOS>MOLECULE
tmp/1c5fA00.pdb
 207 200 0 0 0
SMALL
GASTEIGER

@<TRIPOS>ATOM
      1  N         -3.3970  -10.4380   58.9530 N.3    65  HIS65      -0.1226
      2  CA        -4.2420  -11.5780   58.6090 C.3    65  HIS65       0.1752
      3  C         -3.7890  -12.5240   57.5110 C.2    65  HIS65       0.2595
      4  O         -4.3820  -13.5910   57.3470 O.2    65  HIS65      -0.2718
      5  CB        -5.6390  -11.0810   58.2450 C.3    65  HIS65       0.0759
      6  CG        -5.6700  -10.2650   56.9920 C.ar   65  HIS65       0.0818
      7  ND1       -5.1270   -9.0000   56.9150 N.ar   65  HIS65      -0.2268
      8  CD2       -6.1430  -10.5470   55.7550 C.ar   65  HIS65       0.1154
      9  CE1       -5.2630   -8.5370   55.6850 C.ar   65  HIS65       0.1986
     10  NE2       -5.8760   -9.4570   54.9610 N.ar   65  HIS65      -0.2212
     11  N         -2.7680  -12.1520   56.7500 N.am   66  ARG66      -0.1980
     12  CA        -2.3090  -13.0130   55.6580 C.3    66  ARG66       0.1597
     13  C         -0.7930  -12.9960   55.5120 C.2    66  ARG66       0.2287
     14  O         -0.1810  -11.9320   55.4400 O.2    66  ARG66      -0.2864
     15  CB        -2.9790  -12.5650   54.3500 C.3    66  ARG66       0.0334
     16  CG        -2.5770  -13.3080   53.0770 C.3    66  ARG66       0.0492
     17  CD        -3.4760  -12.8430   51.9110 C.3    66  ARG66       0.2205
     18  NE        -3.1080  -13.4150   50.6160 N.pl3  66  ARG66      -0.0865
     19  CZ        -2.2850  -12.8410   49.7410 C.cat  66  ARG66       0.5346
     20  NH1       -1.7350  -11.6630   50.0040 N.pl3  66  ARG66       0.1354
     21  NH2       -2.0000  -13.4540   48.5980 N.pl3  66  ARG66       0.1354
     22  N          2.6890  -15.0180   53.5090 N.3    68  ILE68      -0.1231
     23  CA         3.2070  -15.9670   52.5340 C.3    68  ILE68       0.1692
     24  C          4.7300  -16.0790   52.6560 C.2    68  ILE68       0.2592
     25  O          5.4510  -15.0860   52.5310 O.2    68  ILE68      -0.2718
     26  CB         2.8540  -15.5350   51.0800 C.3    68  ILE68       0.0266
     27  CG1        1.3320  -15.5010   50.8900 C.3    68  ILE68       0.0019
     28  CG2        3.5190  -16.4950   50.0680 C.3    68  ILE68       0.0020
     29  CD1        0.6740  -16.8540   50.9970 C.3    68  ILE68       0.0001
     30  N          5.2110  -17.2940   52.8990 N.am   69  LYS69      -0.1966
     31  CA         6.6390  -17.5520   53.0270 C.3    69  LYS69       0.1728
     32  C          7.4160  -17.1300   51.7810 C.2    69  LYS69       0.2616
     33  O          7.0140  -17.4150   50.6540 O.2    69  LYS69      -0.2715
     34  CB         6.8800  -19.0380   53.2800 C.3    69  LYS69       0.0311
     35  CG         6.2510  -19.5610   54.5490 C.3    69  LYS69       0.0038
     36  CD         6.6510  -20.9990   54.7930 C.3    69  LYS69       0.0206
     37  CE         6.1680  -21.4620   56.1560 C.3    69  LYS69       0.1093
     38  NZ         4.6810  -21.4500   56.2620 N.3    69  LYS69      -0.1314
     39  N          8.5410  -16.4600   52.0010 N.am   70  ASN70      -0.1958
     40  CA         9.3980  -15.9930   50.9200 C.3    70  ASN70       0.1819
     41  C          8.7240  -14.9030   50.1120 C.2    70  ASN70       0.2621
     42  O          9.1350  -14.6320   48.9870 O.2    70  ASN70      -0.2715
     43  CB         9.7650  -17.1360   49.9680 C.3    70  ASN70       0.1195
     44  CG        10.2060  -18.3920   50.6950 C.2    70  ASN70       0.2630
     45  OD1       10.5460  -18.3600   51.8840 O.2    70  ASN70      -0.2716
     46  ND2       10.2180  -19.5120   49.9740 N.am   70  ASN70      -0.0877
     47  N          7.6950  -14.2730   50.6700 N.am   71  PHE71      -0.1960
     48  CA         6.9970  -13.2310   49.9330 C.3    71  PHE71       0.1771
     49  C          6.6960  -11.9440   50.7070 C.2    71  PHE71       0.2619
     50  O          7.4080  -10.9540   50.5540 O.2    71  PHE71      -0.2715
     51  CB         5.7090  -13.8030   49.3370 C.3    71  PHE71       0.0574
     52  CG         4.9040  -12.8000   48.5570 C.ar   71  PHE71      -0.0200
     53  CD1        5.5340  -11.7720   47.8550 C.ar   71  PHE71      -0.0042
     54  CD2        3.5170  -12.8860   48.5180 C.ar   71  PHE71      -0.0042
     55  CE1        4.7920  -10.8460   47.1330 C.ar   71  PHE71      -0.0003
     56  CE2        2.7630  -11.9660   47.7960 C.ar   71  PHE71      -0.0003
     57  CZ         3.4000  -10.9450   47.1030 C.ar   71  PHE71      -0.0000
     58  N          5.6440  -11.9470   51.5250 N.am   72  MET72      -0.1977
     59  CA         5.2820  -10.7440   52.2760 C.3    72  MET72       0.1605
     60  C          4.2620  -11.0040   53.3880 C.2    72  MET72       0.2287
     61  O          3.7190  -12.1030   53.4920 O.2    72  MET72      -0.2864
     62  CB         4.7100   -9.7110   51.3000 C.3    72  MET72       0.0413
     63  CG         3.3810  -10.1150   50.6420 C.3    72  MET72       0.0598
     64  SD         1.9420   -9.8890   51.7350 S.3    72  MET72      -0.1393
     65  CE         1.2550  -11.5290   51.7680 C.3    72  MET72       0.0692
     66  N          0.7330   -9.2600   55.2410 N.3    74  GLN74      -0.1245
     67  CA        -0.2930   -8.2580   55.0010 C.3    74  GLN74       0.1566
     68  C         -1.2330   -8.0270   56.1860 C.2    74  GLN74       0.2260
     69  O         -1.6250   -8.9610   56.8750 O.2    74  GLN74      -0.2867
     70  CB        -1.0760   -8.6660   53.7480 C.3    74  GLN74       0.0367
     71  CG        -2.4500   -8.0500   53.5740 C.3    74  GLN74       0.0905
     72  CD        -3.0800   -8.4410   52.2380 C.2    74  GLN74       0.2608
     73  OE1       -2.8930   -9.5640   51.7550 O.2    74  GLN74      -0.2717
     74  NE2       -3.8290   -7.5170   51.6370 N.am   74  GLN74      -0.0878
     75  N        -10.3800   -9.5290   57.7940 N.3    82  ASP82      -0.1225
     76  CA       -10.2710  -10.6610   56.8760 C.3    82  ASP82       0.1805
     77  C         -9.6630  -10.2780   55.5240 C.2    82  ASP82       0.2598
     78  O         -9.4250  -11.1390   54.6680 O.2    82  ASP82      -0.2718
     79  CB       -11.6500  -11.2860   56.6350 C.3    82  ASP82       0.1424
     80  CG       -12.6560  -10.2910   56.0730 C.2    82  ASP82       0.3668
     81  OD1      -12.2620   -9.4310   55.2530 O.co2  82  ASP82      -0.2456
     82  OD2      -13.8490  -10.3800   56.4430 O.co2  82  ASP82      -0.2456
     83  N         -9.4270   -8.9860   55.3270 N.am   83  GLY83      -0.1942
     84  CA        -8.8620   -8.5320   54.0730 C.3    83  GLY83       0.2014
     85  C         -9.8730   -7.8800   53.1480 C.2    83  GLY83       0.2640
     86  O         -9.5130   -7.4540   52.0520 O.2    83  GLY83      -0.2714
     87  N        -11.1320   -7.7950   53.5760 N.am   84  THR84      -0.1936
     88  CA       -12.1730   -7.1750   52.7530 C.3    84  THR84       0.2028
     89  C        -12.5710   -5.7990   53.2710 C.2    84  THR84       0.2642
     90  O        -13.4820   -5.1750   52.7250 O.2    84  THR84      -0.2714
     91  CB       -13.4610   -8.0230   52.7060 C.3    84  THR84       0.1808
     92  OG1      -14.0130   -8.1190   54.0250 O.3    84  THR84      -0.2208
     93  CG2      -13.1740   -9.4180   52.1670 C.3    84  THR84       0.0379
     94  N        -11.8950   -5.3300   54.3190 N.am   85  GLY85      -0.1954
     95  CA       -12.2160   -4.0320   54.8930 C.3    85  GLY85       0.1869
     96  C        -11.1010   -2.9980   54.8420 C.2    85  GLY85       0.2309
     97  O        -10.2250   -3.0480   53.9710 O.2    85  GLY85      -0.2863
     98  N         -1.7040   -2.3460   49.8570 N.3   112  ALA112     -0.1231
     99  CA        -2.4290   -3.4730   49.2970 C.3   112  ALA112      0.1694
    100  C         -3.6550   -2.8160   48.7140 C.2   112  ALA112      0.2592
    101  O         -4.0980   -1.7880   49.2210 O.2   112  ALA112     -0.2718
    102  CB        -2.8340   -4.4440   50.3830 C.3   112  ALA112      0.0304
    103  N         -4.1900   -3.3810   47.6420 N.am  113  ASN113     -0.1960
    104  CA        -5.3770   -2.8170   47.0200 C.3   113  ASN113      0.1819
    105  C         -6.1790   -3.8740   46.2670 C.2   113  ASN113      0.2621
    106  O         -5.9290   -5.0700   46.4040 O.2   113  ASN113     -0.2715
    107  CB        -4.9940   -1.6520   46.0850 C.3   113  ASN113      0.1195
    108  CG        -4.1480   -2.0850   44.8930 C.2   113  ASN113      0.2630
    109  OD1       -4.4970   -3.0170   44.1720 O.2   113  ASN113     -0.2716
    110  ND2       -3.0380   -1.3850   44.6680 N.am  113  ASN113     -0.0877
    111  N         -7.1650   -3.4290   45.4960 N.am  114  LYS114     -0.1963
    112  CA        -8.0000   -4.3340   44.7120 C.3   114  LYS114      0.1728
    113  C         -8.2560   -3.6760   43.3630 C.2   114  LYS114      0.2616
    114  O         -9.4010   -3.5470   42.9220 O.2   114  LYS114     -0.2715
    115  CB        -9.3300   -4.6000   45.4270 C.3   114  LYS114      0.0311
    116  CG       -10.1440   -3.3460   45.7070 C.3   114  LYS114      0.0038
    117  CD       -11.5090   -3.7000   46.2760 C.3   114  LYS114      0.0206
    118  CE       -12.2970   -2.4460   46.6330 C.3   114  LYS114      0.1093
    119  NZ       -13.6440   -2.7570   47.2000 N.3   114  LYS114     -0.1314
    120  N         -7.1750   -3.2600   42.7130 N.am  115  GLY115     -0.1955
    121  CA        -7.2940   -2.6060   41.4280 C.3   115  GLY115      0.1869
    122  C         -6.9100   -1.1470   41.5400 C.2   115  GLY115      0.2309
    123  O         -6.6100   -0.6690   42.6300 O.2   115  GLY115     -0.2863
    124  N         -7.5440    2.1360   44.7220 N.3   118  THR118     -0.1218
    125  CA        -8.3610    1.4590   45.7100 C.3   118  THR118      0.1862
    126  C         -7.6150    1.3150   47.0280 C.2   118  THR118      0.2287
    127  O         -7.8160    0.3580   47.7820 O.2   118  THR118     -0.2866
    128  CB        -8.8260    0.0880   45.1950 C.3   118  THR118      0.1770
    129  OG1       -7.7400   -0.5820   44.5400 O.3   118  THR118     -0.2211
    130  CG2       -9.9770    0.2700   44.2180 C.3   118  THR118      0.0375
    131  N         -6.8530    1.6150   50.6790 N.3   120  GLY120     -0.1225
    132  CA        -7.6420    1.7620   51.8900 C.3   120  GLY120      0.1811
    133  C         -6.6620    1.9480   53.0230 C.2   120  GLY120      0.2280
    134  O         -5.9570    2.9540   53.0720 O.2   120  GLY120     -0.2866
    135  N         -5.2230   -1.2880   54.3540 N.3   122  GLN122     -0.1245
    136  CA        -4.4280   -2.5000   54.2100 C.3   122  GLN122      0.1566
    137  C         -3.1080   -2.2730   53.4810 C.2   122  GLN122      0.2260
    138  O         -3.0690   -1.6670   52.4060 O.2   122  GLN122     -0.2867
    139  CB        -5.2290   -3.5720   53.4850 C.3   122  GLN122      0.0367
    140  CG        -6.3950   -4.1140   54.2790 C.3   122  GLN122      0.0905
    141  CD        -6.9940   -5.3320   53.6140 C.2   122  GLN122      0.2608
    142  OE1       -6.3190   -6.3440   53.4480 O.2   122  GLN122     -0.2717
    143  NE2       -8.2600   -5.2410   53.2180 N.am  122  GLN122     -0.0878
    144  N          1.2160   -4.0600   53.0150 N.3   124  PHE124     -0.1241
    145  CA         2.0510   -5.2340   53.1680 C.3   124  PHE124      0.1605
    146  C          3.5200   -4.8470   53.2620 C.2   124  PHE124      0.2264
    147  O          3.9160   -3.7610   52.8450 O.2   124  PHE124     -0.2867
    148  CB         1.8310   -6.2240   52.0150 C.3   124  PHE124      0.0534
    149  CG         2.1940   -5.6950   50.6540 C.ar  124  PHE124     -0.0203
    150  CD1        1.3810   -4.7780   50.0040 C.ar  124  PHE124     -0.0042
    151  CD2        3.3260   -6.1680   49.9930 C.ar  124  PHE124     -0.0042
    152  CE1        1.6850   -4.3460   48.7160 C.ar  124  PHE124     -0.0003
    153  CE2        3.6430   -5.7390   48.6980 C.ar  124  PHE124     -0.0003
    154  CZ         2.8210   -4.8310   48.0610 C.ar  124  PHE124     -0.0000
    155  N          7.0630   -7.9370   40.1710 N.3   132  HIS132     -0.1226
    156  CA         5.7790   -8.1550   39.5160 C.3   132  HIS132      0.1752
    157  C          4.6680   -7.3110   40.1540 C.2   132  HIS132      0.2595
    158  O          3.5110   -7.3600   39.7210 O.2   132  HIS132     -0.2718
    159  CB         5.3910   -9.6320   39.5650 C.3   132  HIS132      0.0759
    160  CG         5.0480  -10.1260   40.9360 C.ar  132  HIS132      0.0818
    161  ND1        6.0020  -10.4020   41.8900 N.ar  132  HIS132     -0.2268
    162  CD2        3.8530  -10.4090   41.5060 C.ar  132  HIS132      0.1154
    163  CE1        5.4110  -10.8370   42.9880 C.ar  132  HIS132      0.1986
    164  NE2        4.1070  -10.8510   42.7810 N.ar  132  HIS132     -0.2212
    165  N          5.0150   -6.5450   41.1870 N.am  133  LEU133     -0.1980
    166  CA         4.0450   -5.6880   41.8590 C.3   133  LEU133      0.1596
    167  C          4.2610   -4.2230   41.4690 C.2   133  LEU133      0.2287
    168  O          3.3920   -3.3750   41.6980 O.2   133  LEU133     -0.2864
    169  CB         4.1400   -5.8550   43.3810 C.3   133  LEU133      0.0297
    170  CG         3.8380   -7.2640   43.9140 C.3   133  LEU133      0.0022
    171  CD1        3.8760   -7.2610   45.4420 C.3   133  LEU133      0.0001
    172  CD2        2.4680   -7.7320   43.4140 C.3   133  LEU133      0.0001
    173  N          1.7500   -1.4530   40.0890 N.3   136  ILE136     -0.1231
    174  CA         0.4140   -1.9220   40.4410 C.3   136  ILE136      0.1692
    175  C          0.1340   -1.5790   41.9120 C.2   136  ILE136      0.2592
    176  O         -1.0170   -1.4320   42.3330 O.2   136  ILE136     -0.2718
    177  CB         0.2860   -3.4530   40.2650 C.3   136  ILE136      0.0266
    178  CG1        0.7720   -3.8730   38.8800 C.3   136  ILE136      0.0019
    179  CG2       -1.1620   -3.8760   40.4630 C.3   136  ILE136      0.0020
    180  CD1        0.8260   -5.3730   38.7040 C.3   136  ILE136      0.0001
    181  N          1.1980   -1.4490   42.6900 N.am  137  HIS137     -0.1976
    182  CA         1.0620   -1.1490   44.1040 C.3   137  HIS137      0.1656
    183  C          2.0070   -0.0320   44.4950 C.2   137  HIS137      0.2291
    184  O          3.1840   -0.0570   44.1350 O.2   137  HIS137     -0.2864
    185  CB         1.3680   -2.4050   44.9060 C.3   137  HIS137      0.0771
    186  CG         0.3410   -3.4810   44.7510 C.ar  137  HIS137      0.0820
    187  ND1       -0.8540   -3.4710   45.4360 N.ar  137  HIS137     -0.2267
    188  CD2        0.3220   -4.5910   43.9760 C.ar  137  HIS137      0.1154
    189  CE1       -1.5660   -4.5300   45.0920 C.ar  137  HIS137      0.1986
    190  NE2       -0.8750   -5.2260   44.2070 N.ar  137  HIS137     -0.2212
    191  N         -5.8390  -20.6820   54.0120 N.3   161  LYS161     -0.1231
    192  CA        -6.0360  -19.3770   53.3850 C.3   161  LYS161      0.1693
    193  C         -4.9000  -18.4160   53.7160 C.2   161  LYS161      0.2592
    194  O         -4.9760  -17.2160   53.4430 O.2   161  LYS161     -0.2718
    195  CB        -7.3840  -18.7930   53.8110 C.3   161  LYS161      0.0285
    196  CG        -8.5620  -19.6450   53.3550 C.3   161  LYS161      0.0035
    197  CD        -9.8800  -19.1350   53.9020 C.3   161  LYS161      0.0206
    198  CE       -11.0430  -19.9840   53.4110 C.3   161  LYS161      0.1093
    199  NZ       -12.3360  -19.5270   54.0050 N.3   161  LYS161     -0.1314
    200  N         -3.8440  -18.9710   54.3000 N.am  162  ASN162     -0.1974
    201  CA        -2.6560  -18.2180   54.6700 C.3   162  ASN162      0.1688
    202  C         -2.8120  -17.2890   55.8660 C.2   162  ASN162      0.2292
    203  O         -2.0620  -16.3330   56.0130 O.2   162  ASN162     -0.2864
    204  CB        -2.1350  -17.4370   53.4600 C.3   162  ASN162      0.1181
    205  CG        -1.6180  -18.3500   52.3620 C.2   162  ASN162      0.2629
    206  OD1       -0.7620  -19.2030   52.6070 O.2   162  ASN162     -0.2716
    207  ND2       -2.1290  -18.1730   51.1430 N.am  162  ASN162     -0.0877
@<TRIPOS>BOND
     1   180   178    1
     2   178   177    1
     3   156   159    1
     4   156   157    1
     5   156   155    1
     6   159   160    1
     7   158   157    2
     8   173   174    1
     9   157   165   am
    10   177   174    1
    11   177   179    1
    12   174   175    1
    13   160   162   ar
    14   160   161   ar
    15   165   166    1
    16   121   122    1
    17   121   120    1
    18   167   168    2
    19   167   166    1
    20   162   164   ar
    21   122   123    2
    22   166   169    1
    23   161   163   ar
    24   175   176    2
    25   175   181   am
    26   181   182    1
    27   120   113   am
    28   164   163   ar
    29   114   113    2
    30   113   112    1
    31   169   170    1
    32   172   170    1
    33   170   171    1
    34   188   190   ar
    35   188   186   ar
    36   182   183    1
    37   182   185    1
    38   184   183    2
    39   109   108    2
    40   190   189   ar
    41   130   128    1
    42   129   128    1
    43   110   108   am
    44   112   115    1
    45   112   111    1
    46   124   125    1
    47   186   185    1
    48   186   187   ar
    49   108   107    1
    50   189   187   ar
    51   128   125    1
    52   115   116    1
    53   111   105   am
    54   116   117    1
    55   125   126    1
    56   107   104    1
    57   105   106    2
    58   105   104    1
    59   117   118    1
    60   118   119    1
    61   104   103    1
    62   126   127    2
    63    57    55   ar
    64    57    56   ar
    65    55    53   ar
    66   103   100   am
    67    56    54   ar
    68    53    52   ar
    69   154   153   ar
    70   154   152   ar
    71    54    52   ar
    72    52    51    1
    73    21    19    1
    74   153   151   ar
    75   100   101    2
    76   100    99    1
    77   152   150   ar
    78    42    41    2
    79    99    98    1
    80    99   102    1
    81    51    48    1
    82    19    20    1
    83    19    18    2
    84    48    47    1
    85    48    49    1
    86    43    44    1
    87    43    40    1
    88    46    44   am
    89   151   149   ar
    90   150   149   ar
    91    28    26    1
    92    41    47   am
    93    41    40    1
    94    50    49    2
    95    18    17    1
    96    63    62    1
    97    63    64    1
    98    33    32    2
    99   149   148    1
   100   131   132    1
   101    44    45    2
   102    49    58   am
   103    27    29    1
   104    27    26    1
   105    40    39    1
   106    26    23    1
   107   207   205   am
   108    62    59    1
   109    58    59    1
   110    74    72   am
   111    64    65    1
   112    73    72    2
   113    32    39   am
   114    32    31    1
   115   132   133    1
   116    17    16    1
   117   148   145    1
   118    86    85    2
   119    93    91    1
   120    72    71    1
   121    59    60    1
   122   205   206    2
   123   205   204    1
   124   138   137    2
   125    25    24    2
   126    23    24    1
   127    23    22    1
   128    24    30   am
   129    91    88    1
   130    91    92    1
   131    90    89    2
   132    88    89    1
   133    88    87    1
   134   147   146    2
   135    30    31    1
   136   144   145    1
   137   133   134    2
   138    31    34    1
   139    16    15    1
   140    85    87   am
   141    85    84    1
   142   145   146    1
   143   143   141   am
   144    89    94   am
   145    34    35    1
   146   196   195    1
   147   196   197    1
   148   192   193    1
   149   192   195    1
   150   192   191    1
   151    60    61    2
   152   198   197    1
   153   198   199    1
   154   194   193    2
   155   142   141    2
   156   204   201    1
   157   137   136    1
   158   139   136    1
   159   139   140    1
   160    71    70    1
   161   141   140    1
   162   193   200   am
   163    70    67    1
   164    97    96    2
   165    84    83    1
   166   136   135    1
   167   200   201    1
   168    94    95    1
   169    15    12    1
   170    35    36    1
   171    78    77    2
   172   201   202    1
   173    36    37    1
   174    96    95    1
   175    10     9   ar
   176    10     8   ar
   177    67    66    1
   178    67    68    1
   179    81    80   ar
   180    83    77   am
   181    14    13    2
   182    13    12    1
   183    77    76    1
   184    12    11    1
   185     9     7   ar
   186     8     6   ar
   187   202   203    2
   188    80    82   ar
   189    80    79    1
   190    37    38    1
   191    68    69    2
   192    79    76    1
   193    11     3   am
   194    76    75    1
   195     7     6   ar
   196     6     5    1
   197     4     3    2
   198     3     2    1
   199     5     2    1
   200     2     1    1
