@<TRIPOS>MOLECULE
tmp/1c5nB01.pdb
 160 162 0 0 0
SMALL
GASTEIGER

@<TRIPOS>ATOM
      1  N         22.6530   -7.1120   18.5820 N.3    43  HIS43      -0.1241
      2  CA        22.5290   -8.5170   18.1410 C.3    43  HIS43       0.1621
      3  C         21.7920   -8.6220   16.8200 C.2    43  HIS43       0.2264
      4  O         21.8370   -9.6610   16.1830 O.2    43  HIS43      -0.2867
      5  CB        21.8110   -9.3500   19.2400 C.3    43  HIS43       0.0745
      6  CG        20.3190   -9.2050   19.3700 C.ar   43  HIS43       0.0817
      7  ND1       19.6410   -8.4960   20.2210 N.ar   43  HIS43      -0.2268
      8  CD2       19.3630   -9.8070   18.6050 C.ar   43  HIS43       0.1154
      9  CE1       18.3750   -8.6420   20.0060 C.ar   43  HIS43       0.1986
     10  NE2       18.1570   -9.4530   19.0060 N.ar   43  HIS43      -0.2212
     11  N         25.7560  -17.5090   15.3050 N.3    50  TRP50      -0.1241
     12  CA        24.8700  -17.8190   14.1270 C.3    50  TRP50       0.1605
     13  C         25.4360  -17.1580   12.9000 C.2    50  TRP50       0.2264
     14  O         24.7180  -16.8390   11.9770 O.2    50  TRP50      -0.2867
     15  CB        23.4330  -17.2650   14.3280 C.3    50  TRP50       0.0550
     16  CG        22.7420  -17.7960   15.5860 C.ar   50  TRP50       0.0003
     17  CD1       23.1510  -18.8420   16.3640 C.ar   50  TRP50       0.0946
     18  CD2       21.6000  -17.2890   16.1090 C.ar   50  TRP50       0.0152
     19  NE1       22.2250  -18.8920   17.3070 N.ar   50  TRP50      -0.2442
     20  CE2       21.2490  -18.0070   17.2490 C.ar   50  TRP50       0.0810
     21  CE3       20.7920  -16.2380   15.6870 C.ar   50  TRP50       0.0012
     22  CZ2       20.1030  -17.6880   17.9710 C.ar   50  TRP50       0.0191
     23  CZ3       19.6390  -15.9120   16.4050 C.ar   50  TRP50       0.0001
     24  CH2       19.2970  -16.6390   17.5480 C.ar   50  TRP50       0.0015
     25  N          4.7480  -17.9170   19.8380 N.3   146  GLU146     -0.1245
     26  CA         6.1530  -18.4770   19.8970 C.3   146  GLU146      0.1567
     27  C          6.4140  -19.4100   18.6920 C.2   146  GLU146      0.2260
     28  O          7.5240  -19.4680   18.1940 O.2   146  GLU146     -0.2867
     29  CB         6.3310  -19.2560   21.2050 C.3   146  GLU146      0.0388
     30  CG         7.8290  -19.3340   21.5550 C.3   146  GLU146      0.1160
     31  CD         7.9910  -20.0790   22.9020 C.2   146  GLU146      0.3649
     32  OE1        7.2880  -19.7760   23.8600 O.co2 146  GLU146     -0.2457
     33  OE2        8.8460  -20.9410   22.9040 O.co2 146  GLU146     -0.2457
     34  N          3.7780   -9.7850   25.2730 N.3   192  ASP192     -0.1225
     35  CA         5.2490   -9.8860   25.2260 C.3   192  ASP192      0.1805
     36  C          5.7040   -9.5880   23.7850 C.2   192  ASP192      0.2598
     37  O          4.9080   -9.5000   22.8550 O.2   192  ASP192     -0.2718
     38  CB         5.6660  -11.3310   25.6590 C.3   192  ASP192      0.1424
     39  CG         7.1840  -11.4840   25.9680 C.2   192  ASP192      0.3668
     40  OD1        7.8520  -10.4820   26.1450 O.co2 192  ASP192     -0.2456
     41  OD2        7.6290  -12.6200   26.0320 O.co2 192  ASP192     -0.2456
     42  N          6.9930   -9.4390   23.6430 N.am  193  ALA193     -0.1966
     43  CA         7.6110   -9.1690   22.3300 C.3   193  ALA193      0.1728
     44  C          7.9810  -10.6050   21.9160 C.2   193  ALA193      0.2616
     45  O          7.7570  -11.5300   22.6770 O.2   193  ALA193     -0.2715
     46  CB         8.9140   -8.3240   22.4440 C.3   193  ALA193      0.0334
     47  N          8.5260  -10.7550   20.7500 N.am  194  CYS194     -0.1954
     48  CA         8.8970  -12.1230   20.2960 C.3   194  CYS194      0.1843
     49  C          9.7830  -11.9480   19.0960 C.2   194  CYS194      0.2625
     50  O         10.1180  -10.8260   18.7300 O.2   194  CYS194     -0.2714
     51  CB         7.6090  -12.9180   19.9130 C.3   194  CYS194      0.0997
     52  SG         7.8220  -14.7050   19.7270 S.3   194  CYS194     -0.0797
     53  N         10.1170  -13.0680   18.5230 N.am  195  GLU195     -0.1963
     54  CA        10.9900  -13.0460   17.3140 C.3   195  GLU195      0.1733
     55  C         10.4800  -12.0280   16.2950 C.2   195  GLU195      0.2616
     56  O          9.2990  -12.0040   15.9970 O.2   195  GLU195     -0.2715
     57  CB        11.0010  -14.3970   16.6140 C.3   195  GLU195      0.0429
     58  CG        12.2020  -14.5360   15.6830 C.3   195  GLU195      0.1163
     59  CD        12.3570  -16.0360   15.4340 C.2   195  GLU195      0.3649
     60  OE1       12.6970  -16.3560   14.3040 O.co2 195  GLU195     -0.2457
     61  OE2       12.1230  -16.7670   16.3820 O.co2 195  GLU195     -0.2457
     62  N         11.3750  -11.2310   15.8010 N.am  196  GLY196     -0.1955
     63  CA        11.0300  -10.1850   14.7900 C.3   196  GLY196      0.1869
     64  C         10.9110   -8.8180   15.4390 C.2   196  GLY196      0.2309
     65  O         11.0130   -7.8220   14.7400 O.2   196  GLY196     -0.2863
     66  N         12.9120   -7.7330   18.0230 N.3   198  SER198     -0.1217
     67  CA        14.2400   -7.2750   18.5200 C.3   198  SER198      0.1889
     68  C         14.6210   -5.9220   17.9270 C.2   198  SER198      0.2288
     69  O         14.2640   -5.6310   16.7990 O.2   198  SER198     -0.2866
     70  CB        15.4210   -8.2230   18.1040 C.3   198  SER198      0.2089
     71  OG        15.0840   -9.5060   18.6020 O.3   198  SER198     -0.2183
     72  N         14.1780   -3.6910   22.6790 N.3   218  VAL218     -0.1231
     73  CA        13.8890   -5.1570   22.8610 C.3   218  VAL218      0.1692
     74  C         15.2340   -5.9210   22.6270 C.2   218  VAL218      0.2593
     75  O         15.8360   -5.8670   21.5550 O.2   218  VAL218     -0.2718
     76  CB        12.8060   -5.5530   21.8290 C.3   218  VAL218      0.0266
     77  CG1       12.4190   -7.0570   22.0140 C.3   218  VAL218      0.0020
     78  CG2       11.5080   -4.7090   22.0060 C.3   218  VAL218      0.0020
     79  N         15.6650   -6.6150   23.6470 N.am  219  SER219     -0.1938
     80  CA        16.9320   -7.3880   23.6130 C.3   219  SER219      0.2055
     81  C         16.7570   -8.9020   23.6570 C.2   219  SER219      0.2643
     82  O         17.1620   -9.5230   22.6920 O.2   219  SER219     -0.2714
     83  CB        17.7570   -6.8750   24.7920 C.3   219  SER219      0.2130
     84  OG        19.0240   -7.5160   24.7310 O.3   219  SER219     -0.2179
     85  N         16.2040   -9.4760   24.6940 N.am  220  TRP220     -0.1959
     86  CA        16.0670  -10.9520   24.6740 C.3   220  TRP220      0.1771
     87  C         14.9740  -11.4390   25.5810 C.2   220  TRP220      0.2620
     88  O         14.4270  -10.6980   26.3850 O.2   220  TRP220     -0.2715
     89  CB        17.4580  -11.6180   25.0620 C.3   220  TRP220      0.0590
     90  CG        18.0940  -11.2380   26.4320 C.ar  220  TRP220      0.0006
     91  CD1       18.9570  -10.2000   26.6510 C.ar  220  TRP220      0.0946
     92  CD2       17.8990  -11.8980   27.6040 C.ar  220  TRP220      0.0152
     93  NE1       19.2340  -10.2950   27.9410 N.ar  220  TRP220     -0.2442
     94  CE2       18.6440  -11.2860   28.6060 C.ar  220  TRP220      0.0810
     95  CE3       17.1040  -13.0180   27.9050 C.ar  220  TRP220      0.0012
     96  CZ2       18.5810  -11.8030   29.8950 C.ar  220  TRP220      0.0191
     97  CZ3       17.0430  -13.5260   29.1870 C.ar  220  TRP220      0.0001
     98  CH2       17.7860  -12.9120   30.1830 C.ar  220  TRP220      0.0015
     99  N         14.6740  -12.6990   25.4220 N.am  221  GLY221     -0.1940
    100  CA        13.6170  -13.3560   26.2340 C.3   221  GLY221      0.2014
    101  C         13.8120  -14.8450   26.0480 C.2   221  GLY221      0.2639
    102  O         14.6330  -15.2410   25.2530 O.2   221  GLY221     -0.2714
    103  N         13.0800  -15.6340   26.7720 N.am  222  GLU222     -0.1963
    104  CA        13.1700  -17.1280   26.6840 C.3   222  GLU222      0.1733
    105  C         11.7840  -17.5050   26.2020 C.2   222  GLU222      0.2617
    106  O         10.8430  -17.6010   26.9770 O.2   222  GLU222     -0.2715
    107  CB        13.4880  -17.6820   28.1050 C.3   222  GLU222      0.0429
    108  CG        14.9440  -17.1840   28.5300 C.3   222  GLU222      0.1163
    109  CD        15.2220  -17.2000   30.0700 C.2   222  GLU222      0.3649
    110  OE1       14.5150  -16.5390   30.8180 O.co2 222  GLU222     -0.2457
    111  OE2       16.1590  -17.8830   30.4080 O.co2 222  GLU222     -0.2457
    112  N         11.6890  -17.6800   24.9170 N.am  223  GLY223     -0.1940
    113  CA        10.3800  -18.0480   24.3180 C.3   223  GLY223      0.2014
    114  C          9.6030  -16.7360   24.2470 C.2   223  GLY223      0.2639
    115  O         10.2010  -15.6820   24.3760 O.2   223  GLY223     -0.2714
    116  N          8.3140  -16.8190   24.0570 N.am  224  CYS224     -0.1967
    117  CA         7.4580  -15.5910   23.9740 C.3   224  CYS224      0.1712
    118  C          6.1880  -15.7740   24.8080 C.2   224  CYS224      0.2296
    119  O          5.4730  -16.7430   24.6500 O.2   224  CYS224     -0.2864
    120  CB         7.0920  -15.3550   22.5360 C.3   224  CYS224      0.0983
    121  SG         8.5530  -15.3170   21.5030 S.3   224  CYS224     -0.0798
    122  N          9.9080  -13.3020   31.5700 N.3   230  TYR230     -0.1227
    123  CA         9.7430  -11.8450   31.2310 C.3   230  TYR230      0.1736
    124  C         10.6410  -11.5040   30.0580 C.2   230  TYR230      0.2596
    125  O         11.5010  -12.2870   29.6960 O.2   230  TYR230     -0.2718
    126  CB        10.1590  -10.9590   32.4520 C.3   230  TYR230      0.0548
    127  CG         9.3570  -11.3950   33.6730 C.ar  230  TYR230     -0.0200
    128  CD1        8.0880  -10.9070   33.8980 C.ar  230  TYR230     -0.0009
    129  CD2        9.8910  -12.3220   34.5560 C.ar  230  TYR230     -0.0009
    130  CE1        7.3640  -11.3450   34.9840 C.ar  230  TYR230      0.0417
    131  CE2        9.1640  -12.7530   35.6370 C.ar  230  TYR230      0.0417
    132  CZ         7.9080  -12.2750   35.8560 C.ar  230  TYR230      0.1957
    133  OH         7.1930  -12.7390   36.9350 O.3   230  TYR230     -0.2866
    134  N         10.4480  -10.3450   29.4900 N.am  231  GLY231     -0.1942
    135  CA        11.3140   -9.9590   28.3330 C.3   231  GLY231      0.2014
    136  C         12.3490   -9.0220   28.9310 C.2   231  GLY231      0.2639
    137  O         12.0460   -8.3410   29.8950 O.2   231  GLY231     -0.2714
    138  N         13.5090   -9.0200   28.3540 N.am  232  PHE232     -0.1959
    139  CA        14.6160   -8.1580   28.8320 C.3   232  PHE232      0.1771
    140  C         14.8230   -7.1160   27.7690 C.2   232  PHE232      0.2619
    141  O         14.6680   -7.3980   26.5820 O.2   232  PHE232     -0.2715
    142  CB        15.9850   -8.9680   29.0350 C.3   232  PHE232      0.0574
    143  CG        15.7820   -9.7640   30.3290 C.ar  232  PHE232     -0.0200
    144  CD1       14.9670  -10.8930   30.3330 C.ar  232  PHE232     -0.0042
    145  CD2       16.3470   -9.3260   31.5170 C.ar  232  PHE232     -0.0042
    146  CE1       14.7050  -11.5770   31.5070 C.ar  232  PHE232     -0.0003
    147  CE2       16.0830  -10.0110   32.6820 C.ar  232  PHE232     -0.0003
    148  CZ        15.2650  -11.1310   32.6810 C.ar  232  PHE232     -0.0000
    149  N         15.1800   -5.9500   28.2490 N.am  233  TYR233     -0.1974
    150  CA        15.4380   -4.7540   27.3990 C.3   233  TYR233      0.1639
    151  C         16.7110   -4.0000   27.7210 C.2   233  TYR233      0.2290
    152  O         17.0490   -3.9130   28.8820 O.2   233  TYR233     -0.2864
    153  CB        14.2690   -3.7530   27.5610 C.3   233  TYR233      0.0560
    154  CG        12.9210   -4.3560   27.2280 C.ar  233  TYR233     -0.0198
    155  CD1       12.2470   -5.1500   28.1500 C.ar  233  TYR233     -0.0009
    156  CD2       12.3480   -4.1200   25.9870 C.ar  233  TYR233     -0.0009
    157  CE1       11.0350   -5.6950   27.8390 C.ar  233  TYR233      0.0417
    158  CE2       11.1350   -4.6720   25.7010 C.ar  233  TYR233      0.0417
    159  CZ        10.4750   -5.4560   26.6000 C.ar  233  TYR233      0.1957
    160  OH         9.2660   -5.9890   26.2320 O.3   233  TYR233     -0.2866
@<TRIPOS>BOND
     1    14    13    2
     2    13    12    1
     3    12    15    1
     4    12    11    1
     5    60    59   ar
     6    15    16    1
     7    65    64    2
     8    63    64    1
     9    63    62    1
    10    59    58    1
    11    59    61   ar
    12    16    18   ar
    13    16    17   ar
    14    58    57    1
    15    21    18   ar
    16    21    23   ar
    17    62    55   am
    18    56    55    2
    19    18    20   ar
    20     4     3    2
    21    55    54    1
    22    17    19   ar
    23    23    24   ar
    24    57    54    1
    25    69    68    2
    26     3     2    1
    27    20    19   ar
    28    20    22   ar
    29    54    53    1
    30    24    22   ar
    31    68    67    1
    32    66    67    1
    33    70    67    1
    34    70    71    1
    35     2     1    1
    36     2     5    1
    37    28    27    2
    38    53    49   am
    39     8    10   ar
    40     8     6   ar
    41    27    26    1
    42    50    49    2
    43    10     9   ar
    44    49    48    1
    45     5     6    1
    46     6     7   ar
    47    52    51    1
    48    52   121    1
    49    25    26    1
    50    26    29    1
    51    51    48    1
    52     9     7   ar
    53    48    47    1
    54    47    44   am
    55    29    30    1
    56   121   120    1
    57    30    31    1
    58    75    74    2
    59    76    78    1
    60    76    77    1
    61    76    73    1
    62    44    43    1
    63    44    45    2
    64    43    46    1
    65    43    42    1
    66   120   117    1
    67    74    73    1
    68    74    79   am
    69    72    73    1
    70    82    81    2
    71    37    36    2
    72    31    33   ar
    73    31    32   ar
    74    80    79    1
    75    80    81    1
    76    80    83    1
    77    42    36   am
    78    81    85   am
    79    36    35    1
    80   117   116    1
    81   117   118    1
    82   116   114   am
    83   114   113    1
    84   114   115    2
    85   113   112    1
    86   119   118    2
    87    86    85    1
    88    86    89    1
    89    86    87    1
    90    84    83    1
    91   112   105   am
    92    89    90    1
    93    35    34    1
    94    35    38    1
    95   102   101    2
    96    99    87   am
    97    99   100    1
    98    87    88    2
    99    38    39    1
   100   158   156   ar
   101   158   159   ar
   102    39    41   ar
   103    39    40   ar
   104   156   154   ar
   105   101   100    1
   106   101   103   am
   107   105   104    1
   108   105   106    2
   109   160   159    1
   110    90    91   ar
   111    90    92   ar
   112   141   140    2
   113   159   157   ar
   114    91    93   ar
   115   104   103    1
   116   104   107    1
   117   154   153    1
   118   154   155   ar
   119   150   153    1
   120   150   151    1
   121   150   149    1
   122    92    95   ar
   123    92    94   ar
   124   151   152    2
   125   140   149   am
   126   140   139    1
   127   157   155   ar
   128    95    97   ar
   129    93    94   ar
   130   107   108    1
   131   135   136    1
   132   135   134    1
   133   138   139    1
   134   138   136   am
   135   108   109    1
   136    94    96   ar
   137   139   142    1
   138   136   137    2
   139   142   143    1
   140    97    98   ar
   141   134   124   am
   142   125   124    2
   143    96    98   ar
   144   124   123    1
   145   109   111   ar
   146   109   110   ar
   147   143   144   ar
   148   143   145   ar
   149   144   146   ar
   150   123   122    1
   151   123   126    1
   152   146   148   ar
   153   145   147   ar
   154   126   127    1
   155   148   147   ar
   156   127   128   ar
   157   127   129   ar
   158   128   130   ar
   159   129   131   ar
   160   130   132   ar
   161   131   132   ar
   162   132   133    1
