@<TRIPOS>MOLECULE
tmp/1c5rA01.pdb
 119 119 0 0 0
SMALL
GASTEIGER

@<TRIPOS>ATOM
      1  N         36.5520   23.7380   45.1960 N.3    40  HIS40      -0.1241
      2  CA        37.5370   24.8260   45.5240 C.3    40  HIS40       0.1621
      3  C         38.6280   24.9400   44.4520 C.2    40  HIS40       0.2264
      4  O         39.4180   25.8510   44.5230 O.2    40  HIS40      -0.2867
      5  CB        38.1640   24.5980   46.9980 C.3    40  HIS40       0.0745
      6  CG        39.3690   23.6810   47.2390 C.ar   40  HIS40       0.0817
      7  ND1       39.3340   22.4520   47.6920 N.ar   40  HIS40      -0.2268
      8  CD2       40.7100   23.9780   47.0230 C.ar   40  HIS40       0.1154
      9  CE1       40.5550   22.0020   47.7600 C.ar   40  HIS40       0.1986
     10  NE2       41.3930   22.9120   47.3590 N.ar   40  HIS40      -0.2212
     11  N         50.6990   12.4340   54.4380 N.3   171  ASP171     -0.1225
     12  CA        49.3970   13.1610   54.2320 C.3   171  ASP171      0.1805
     13  C         49.3500   13.7530   52.8300 C.2   171  ASP171      0.2598
     14  O         50.3570   13.7460   52.1220 O.2   171  ASP171     -0.2718
     15  CB        49.3380   14.3260   55.2380 C.3   171  ASP171      0.1424
     16  CG        47.9730   15.0160   55.4450 C.2   171  ASP171      0.3668
     17  OD1       47.9910   15.9810   56.1970 O.co2 171  ASP171     -0.2456
     18  OD2       46.9930   14.5750   54.8720 O.co2 171  ASP171     -0.2456
     19  N         48.2100   14.2560   52.4490 N.am  172  SER172     -0.1938
     20  CA        48.0990   14.8960   51.1040 C.3   172  SER172      0.2055
     21  C         48.4540   16.3850   51.4970 C.2   172  SER172      0.2643
     22  O         48.6510   16.6380   52.6860 O.2   172  SER172     -0.2714
     23  CB        46.6480   14.7330   50.5560 C.3   172  SER172      0.2130
     24  OG        45.8190   15.2160   51.5900 O.3   172  SER172     -0.2179
     25  N         48.5210   17.2960   50.5660 N.am  173  CYS173     -0.1953
     26  CA        48.8740   18.6920   50.8960 C.3   173  CYS173      0.1843
     27  C         48.3970   19.5740   49.7350 C.2   173  CYS173      0.2625
     28  O         47.8340   19.0340   48.7810 O.2   173  CYS173     -0.2714
     29  CB        50.4270   18.7230   51.0740 C.3   173  CYS173      0.0997
     30  SG        51.1600   20.1760   51.8300 S.3   173  CYS173     -0.0797
     31  N         48.6460   20.8620   49.8170 N.am  174  GLN174     -0.1977
     32  CA        48.1930   21.7230   48.6910 C.3   174  GLN174      0.1601
     33  C         48.8610   21.2540   47.3820 C.2   174  GLN174      0.2287
     34  O         50.0110   20.8160   47.3210 O.2   174  GLN174     -0.2864
     35  CB        48.5320   23.2490   48.9240 C.3   174  GLN174      0.0394
     36  CG        49.6820   23.4760   49.9060 C.3   174  GLN174      0.0908
     37  CD        49.9900   24.9680   49.9330 C.2   174  GLN174      0.2608
     38  OE1       50.8040   25.4140   49.1500 O.2   174  GLN174     -0.2717
     39  NE2       49.3920   25.7550   50.7700 N.am  174  GLN174     -0.0878
     40  N         44.8650   18.9000   46.0340 N.3   177  SER177     -0.1217
     41  CA        43.3960   19.1990   46.0210 C.3   177  SER177      0.1889
     42  C         42.6850   18.6830   44.7710 C.2   177  SER177      0.2288
     43  O         43.2380   18.8310   43.6860 O.2   177  SER177     -0.2866
     44  CB        43.1690   20.6860   46.0490 C.3   177  SER177      0.2089
     45  OG        43.4980   21.0880   47.3750 O.3   177  SER177     -0.2183
     46  N         40.5040   15.0120   47.6250 N.3   191  VAL191     -0.1231
     47  CA        41.4140   15.8150   48.5160 C.3   191  VAL191      0.1692
     48  C         40.7410   17.2090   48.6500 C.2   191  VAL191      0.2593
     49  O         40.5750   17.9390   47.6620 O.2   191  VAL191     -0.2718
     50  CB        42.8240   15.8750   47.8590 C.3   191  VAL191      0.0266
     51  CG1       43.7870   16.6200   48.7940 C.3   191  VAL191      0.0020
     52  CG2       43.4210   14.4920   47.5720 C.3   191  VAL191      0.0020
     53  N         40.3920   17.5130   49.8760 N.am  192  SER192     -0.1938
     54  CA        39.7140   18.7950   50.2020 C.3   192  SER192      0.2055
     55  C         40.5040   19.7590   51.0670 C.2   192  SER192      0.2643
     56  O         40.8730   20.8080   50.5350 O.2   192  SER192     -0.2714
     57  CB        38.3470   18.3970   50.8570 C.3   192  SER192      0.2130
     58  OG        37.5640   19.5750   50.9670 O.3   192  SER192     -0.2179
     59  N         40.7360   19.4200   52.3060 N.am  193  TRP193     -0.1959
     60  CA        41.4950   20.3660   53.1570 C.3   193  TRP193      0.1771
     61  C         42.1890   19.7100   54.3360 C.2   193  TRP193      0.2620
     62  O         42.0870   18.5080   54.4840 O.2   193  TRP193     -0.2715
     63  CB        40.5380   21.4370   53.6710 C.3   193  TRP193      0.0590
     64  CG        39.3430   21.0010   54.5220 C.ar  193  TRP193      0.0006
     65  CD1       38.1290   20.5950   54.0670 C.ar  193  TRP193      0.0946
     66  CD2       39.2720   20.9860   55.8860 C.ar  193  TRP193      0.0152
     67  NE1       37.3520   20.3550   55.1020 N.ar  193  TRP193     -0.2442
     68  CE2       37.9760   20.5690   56.2260 C.ar  193  TRP193      0.0810
     69  CE3       40.1930   21.2890   56.8790 C.ar  193  TRP193      0.0012
     70  CZ2       37.6070   20.4560   57.5540 C.ar  193  TRP193      0.0191
     71  CZ3       39.8270   21.1720   58.2070 C.ar  193  TRP193      0.0001
     72  CH2       38.5330   20.7620   58.5450 C.ar  193  TRP193      0.0015
     73  N         42.8730   20.4950   55.1190 N.am  194  GLY194     -0.1940
     74  CA        43.5850   19.9580   56.3140 C.3   194  GLY194      0.2014
     75  C         44.2380   21.1570   57.0050 C.2   194  GLY194      0.2640
     76  O         44.1690   22.2450   56.4390 O.2   194  GLY194     -0.2714
     77  N         44.8240   20.9280   58.1520 N.am  195  SER195     -0.1935
     78  CA        45.5050   22.0220   58.9440 C.3   195  SER195      0.2055
     79  C         46.9710   21.6790   58.6660 C.2   195  SER195      0.2644
     80  O         47.4710   20.7340   59.2670 O.2   195  SER195     -0.2714
     81  CB        45.2370   21.9150   60.4740 C.3   195  SER195      0.2130
     82  OG        45.8700   23.0660   61.0210 O.3   195  SER195     -0.2179
     83  N         47.5350   22.4510   57.7620 N.am  196  GLY196     -0.1939
     84  CA        48.9420   22.2970   57.3170 C.3   196  GLY196      0.2014
     85  C         48.9850   20.9140   56.6880 C.2   196  GLY196      0.2639
     86  O         47.9270   20.4420   56.2880 O.2   196  GLY196     -0.2714
     87  N         50.1440   20.3290   56.6150 N.am  197  CYS197     -0.1967
     88  CA        50.2880   18.9770   56.0190 C.3   197  CYS197      0.1712
     89  C         51.1610   18.1070   56.9160 C.2   197  CYS197      0.2296
     90  O         52.1880   18.5670   57.3910 O.2   197  CYS197     -0.2864
     91  CB        50.9600   19.0510   54.6190 C.3   197  CYS197      0.0983
     92  SG        50.1310   20.2250   53.5440 S.3   197  CYS197     -0.0798
     93  N         46.3920   16.2210   63.0040 N.3   202  LYS202     -0.1231
     94  CA        45.7380   17.0560   61.9490 C.3   202  LYS202      0.1678
     95  C         45.7800   16.1770   60.6460 C.2   202  LYS202      0.2434
     96  O         46.5760   16.4700   59.7610 O.2   202  LYS202     -0.2733
     97  CB        46.5270   18.4140   61.7830 C.3   202  LYS202      0.0284
     98  CG        46.3160   19.4090   63.0170 C.3   202  LYS202      0.0035
     99  CD        44.7980   19.9140   63.2020 C.3   202  LYS202      0.0206
    100  CE        44.6040   20.8650   64.4460 C.3   202  LYS202      0.1093
    101  NZ        43.1840   21.3550   64.4830 N.3   202  LYS202     -0.1314
    102  N         44.9610   15.1310   60.5650 N.am  203  PRO203     -0.2718
    103  CA        44.8090   14.3310   59.2980 C.3   203  PRO203      0.1535
    104  C         44.1680   15.1280   58.0950 C.2   203  PRO203      0.2599
    105  O         43.6710   16.2330   58.1990 O.2   203  PRO203     -0.2715
    106  CB        43.9730   13.0760   59.7680 C.3   203  PRO203      0.0310
    107  CG        43.1310   13.6050   60.9630 C.3   203  PRO203      0.0237
    108  CD        44.0810   14.5940   61.6790 C.3   203  PRO203      0.0939
    109  N         44.1840   14.5450   56.9480 N.am  204  GLY204     -0.1941
    110  CA        43.5820   15.2900   55.7970 C.3   204  GLY204      0.2014
    111  C         42.0780   15.0650   55.8520 C.2   204  GLY204      0.2638
    112  O         41.6540   14.0710   56.4160 O.2   204  GLY204     -0.2714
    113  N         41.3410   15.9500   55.2630 N.am  205  VAL205     -0.1977
    114  CA        39.8780   15.8620   55.2440 C.3   205  VAL205      0.1596
    115  C         39.5520   15.7360   53.7710 C.2   205  VAL205      0.2287
    116  O         40.0790   16.4930   52.9690 O.2   205  VAL205     -0.2864
    117  CB        39.3030   17.1600   55.9370 C.3   205  VAL205      0.0276
    118  CG1       37.7760   17.0400   56.0980 C.3   205  VAL205      0.0022
    119  CG2       39.9550   17.3820   57.3630 C.3   205  VAL205      0.0022
@<TRIPOS>BOND
     1    43    42    2
     2     3     4    2
     3     3     2    1
     4    42    41    1
     5     1     2    1
     6     2     5    1
     7    41    40    1
     8    41    44    1
     9    44    45    1
    10     5     6    1
    11     8     6   ar
    12     8    10   ar
    13     6     7   ar
    14    34    33    2
    15    10     9   ar
    16    33    32    1
    17    52    50    1
    18    46    47    1
    19    49    48    2
    20     7     9   ar
    21    50    47    1
    22    50    51    1
    23    47    48    1
    24    48    53   am
    25    32    35    1
    26    32    31    1
    27    28    27    2
    28    35    36    1
    29    38    37    2
    30    27    31   am
    31    27    26    1
    32    53    54    1
    33    36    37    1
    34    37    39   am
    35    54    57    1
    36    54    55    1
    37    56    55    2
    38    23    20    1
    39    23    24    1
    40    25    26    1
    41    25    21   am
    42    57    58    1
    43    26    29    1
    44    55    59   am
    45    29    30    1
    46    20    21    1
    47    20    19    1
    48    21    22    2
    49    30    92    1
    50    14    13    2
    51    59    60    1
    52    19    13   am
    53    13    12    1
    54   116   115    2
    55    60    63    1
    56    60    61    1
    57    92    91    1
    58    63    64    1
    59   115   114    1
    60    65    64   ar
    61    65    67   ar
    62    12    11    1
    63    12    15    1
    64    61    62    2
    65    61    73   am
    66    64    66   ar
    67    91    88    1
    68    18    16   ar
    69    67    68   ar
    70    73    74    1
    71    15    16    1
    72   114   113    1
    73   114   117    1
    74   113   111   am
    75    16    17   ar
    76   110   111    1
    77   110   109    1
    78   111   112    2
    79    66    68   ar
    80    66    69   ar
    81   117   118    1
    82   117   119    1
    83    88    87    1
    84    88    89    1
    85    68    70   ar
    86    86    85    2
    87    74    75    1
    88    76    75    2
    89    87    85   am
    90    85    84    1
    91    69    71   ar
    92    89    90    2
    93   109   104   am
    94    75    77   am
    95    84    83    1
    96    70    72   ar
    97    83    79   am
    98   104   105    2
    99   104   103    1
   100    77    78    1
   101    71    72   ar
   102    79    78    1
   103    79    80    2
   104    78    81    1
   105   103   106    1
   106   103   102    1
   107    96    95    2
   108   106   107    1
   109    81    82    1
   110   102    95   am
   111   102   108    1
   112    95    94    1
   113   107   108    1
   114    97    94    1
   115    97    98    1
   116    94    93    1
   117    98    99    1
   118    99   100    1
   119   100   101    1
