@<TRIPOS>MOLECULE
tmp/1c5uA00.pdb
 90 88 0 0 0
SMALL
GASTEIGER

@<TRIPOS>ATOM
      1  N         36.4180   23.7150   45.2380 N.3    40  HIS40      -0.1241
      2  CA        37.3250   24.8580   45.5420 C.3    40  HIS40       0.1621
      3  C         38.4250   24.9710   44.4580 C.2    40  HIS40       0.2264
      4  O         39.1880   25.9150   44.4900 O.2    40  HIS40      -0.2867
      5  CB        37.9510   24.7000   47.0010 C.3    40  HIS40       0.0745
      6  CG        39.1400   23.7320   47.2080 C.ar   40  HIS40       0.0817
      7  ND1       39.0790   22.5120   47.6940 N.ar   40  HIS40      -0.2268
      8  CD2       40.5090   23.9570   46.9470 C.ar   40  HIS40       0.1154
      9  CE1       40.2660   21.9940   47.7440 C.ar   40  HIS40       0.1986
     10  NE2       41.1370   22.8550   47.2970 N.ar   40  HIS40      -0.2212
     11  N         50.6780   12.5430   54.5760 N.3   171  ASP171     -0.1225
     12  CA        49.3940   13.2830   54.3340 C.3   171  ASP171      0.1805
     13  C         49.3630   13.8520   52.8990 C.2   171  ASP171      0.2598
     14  O         50.3880   13.8290   52.2300 O.2   171  ASP171     -0.2718
     15  CB        49.3190   14.4900   55.3070 C.3   171  ASP171      0.1424
     16  CG        47.9590   15.1940   55.4460 C.2   171  ASP171      0.3668
     17  OD1       47.9940   16.1940   56.1370 O.co2 171  ASP171     -0.2456
     18  OD2       46.9800   14.7300   54.8920 O.co2 171  ASP171     -0.2456
     19  N         48.2080   14.3480   52.4810 N.am  172  SER172     -0.1938
     20  CA        48.1030   14.9530   51.1290 C.3   172  SER172      0.2055
     21  C         48.4660   16.4490   51.5260 C.2   172  SER172      0.2643
     22  O         48.6890   16.7560   52.6930 O.2   172  SER172     -0.2714
     23  CB        46.6350   14.7950   50.5600 C.3   172  SER172      0.2130
     24  OG        45.7520   15.3520   51.5010 O.3   172  SER172     -0.2179
     25  N         48.5160   17.3420   50.5830 N.am  173  CYS173     -0.1953
     26  CA        48.8760   18.7390   50.8970 C.3   173  CYS173      0.1843
     27  C         48.4130   19.6230   49.7300 C.2   173  CYS173      0.2625
     28  O         47.8130   19.1490   48.7700 O.2   173  CYS173     -0.2714
     29  CB        50.4340   18.7470   51.0740 C.3   173  CYS173      0.0997
     30  SG        51.1530   20.2160   51.8180 S.3   173  CYS173     -0.0797
     31  N         48.7300   20.8850   49.8490 N.am  174  GLN174     -0.1977
     32  CA        48.3770   21.8830   48.7960 C.3   174  GLN174      0.1601
     33  C         48.9450   21.4120   47.4290 C.2   174  GLN174      0.2287
     34  O         50.0840   20.9970   47.3030 O.2   174  GLN174     -0.2864
     35  CB        48.9910   23.2780   49.1230 C.3   174  GLN174      0.0394
     36  CG        48.5280   23.7340   50.5690 C.3   174  GLN174      0.0908
     37  CD        48.8680   25.2010   50.8290 C.2   174  GLN174      0.2608
     38  OE1       48.5760   25.7400   51.8700 O.2   174  GLN174     -0.2717
     39  NE2       49.4820   25.9060   49.9280 N.am  174  GLN174     -0.0878
     40  N         44.9180   19.0000   46.0420 N.3   177  SER177     -0.1217
     41  CA        43.4570   19.2950   46.0280 C.3   177  SER177      0.1889
     42  C         42.7300   18.7790   44.7890 C.2   177  SER177      0.2288
     43  O         43.2570   18.9230   43.7060 O.2   177  SER177     -0.2866
     44  CB        43.1960   20.7960   46.0440 C.3   177  SER177      0.2089
     45  OG        43.5490   21.3800   47.2940 O.3   177  SER177     -0.2183
     46  N         40.5180   15.0040   47.6390 N.3   191  VAL191     -0.1231
     47  CA        41.3880   15.8100   48.5460 C.3   191  VAL191      0.1692
     48  C         40.7050   17.1680   48.6980 C.2   191  VAL191      0.2593
     49  O         40.5290   17.8640   47.7170 O.2   191  VAL191     -0.2718
     50  CB        42.7950   15.9240   47.8960 C.3   191  VAL191      0.0266
     51  CG1       43.7130   16.7400   48.7830 C.3   191  VAL191      0.0020
     52  CG2       43.4270   14.5420   47.6800 C.3   191  VAL191      0.0020
     53  N         40.3590   17.5210   49.9060 N.am  192  SER192     -0.1938
     54  CA        39.6700   18.8150   50.1550 C.3   192  SER192      0.2055
     55  C         40.4080   19.8150   51.0240 C.2   192  SER192      0.2643
     56  O         40.7240   20.8880   50.5450 O.2   192  SER192     -0.2714
     57  CB        38.2490   18.4350   50.7550 C.3   192  SER192      0.2130
     58  OG        37.4540   19.6060   50.8580 O.3   192  SER192     -0.2179
     59  N         40.6530   19.4830   52.2690 N.am  193  TRP193     -0.1959
     60  CA        41.3740   20.4540   53.1460 C.3   193  TRP193      0.1771
     61  C         42.0760   19.7750   54.2980 C.2   193  TRP193      0.2620
     62  O         42.1060   18.5550   54.3710 O.2   193  TRP193     -0.2715
     63  CB        40.3820   21.5090   53.6980 C.3   193  TRP193      0.0590
     64  CG        39.1580   21.0150   54.4980 C.ar  193  TRP193      0.0006
     65  CD1       38.0120   20.4820   53.9680 C.ar  193  TRP193      0.0946
     66  CD2       39.0030   21.0780   55.8570 C.ar  193  TRP193      0.0152
     67  NE1       37.2360   20.2580   55.0210 N.ar  193  TRP193     -0.2442
     68  CE2       37.7370   20.5810   56.2040 C.ar  193  TRP193      0.0810
     69  CE3       39.8420   21.5440   56.8810 C.ar  193  TRP193      0.0012
     70  CZ2       37.3290   20.5500   57.5410 C.ar  193  TRP193      0.0191
     71  CZ3       39.4260   21.5090   58.2250 C.ar  193  TRP193      0.0001
     72  CH2       38.1740   21.0130   58.5440 C.ar  193  TRP193      0.0015
     73  N         42.6230   20.5950   55.1440 N.am  194  GLY194     -0.1954
     74  CA        43.3530   20.0930   56.3540 C.3   194  GLY194      0.1869
     75  C         43.9910   21.2870   57.0730 C.2   194  GLY194      0.2309
     76  O         43.7080   22.4200   56.7280 O.2   194  GLY194     -0.2863
     77  N         47.6400   22.6360   57.8100 N.3   196  GLY196     -0.1210
     78  CA        49.0860   22.3940   57.5110 C.3   196  GLY196      0.1956
     79  C         49.1310   21.0390   56.7880 C.2   196  GLY196      0.2612
     80  O         48.1170   20.6220   56.2390 O.2   196  GLY196     -0.2717
     81  N         50.2620   20.3860   56.7880 N.am  197  CYS197     -0.1970
     82  CA        50.3380   19.0740   56.1150 C.3   197  CYS197      0.1712
     83  C         51.2260   18.2110   56.9610 C.2   197  CYS197      0.2296
     84  O         52.2740   18.6260   57.4070 O.2   197  CYS197     -0.2864
     85  CB        50.9650   19.1590   54.6830 C.3   197  CYS197      0.0983
     86  SG        50.1590   20.3510   53.5780 S.3   197  CYS197     -0.0798
     87  N         44.2050   14.7270   57.0800 N.3   204  GLY204     -0.1225
     88  CA        43.5810   15.4200   55.9270 C.3   204  GLY204      0.1811
     89  C         42.0670   15.1280   55.9570 C.2   204  GLY204      0.2280
     90  O         41.6570   14.0970   56.4860 O.2   204  GLY204     -0.2866
@<TRIPOS>BOND
     1    43    42    2
     2     3     4    2
     3     3     2    1
     4    42    41    1
     5     1     2    1
     6     2     5    1
     7    41    40    1
     8    41    44    1
     9    44    45    1
    10     8     6   ar
    11     8    10   ar
    12     5     6    1
    13     6     7   ar
    14    10     9   ar
    15    34    33    2
    16    33    32    1
    17    46    47    1
    18    52    50    1
    19     7     9   ar
    20    49    48    2
    21    50    47    1
    22    50    51    1
    23    47    48    1
    24    48    53   am
    25    28    27    2
    26    32    35    1
    27    32    31    1
    28    35    36    1
    29    27    31   am
    30    27    26    1
    31    53    54    1
    32    39    37   am
    33    54    57    1
    34    54    55    1
    35    56    55    2
    36    23    20    1
    37    23    24    1
    38    36    37    1
    39    25    26    1
    40    25    21   am
    41    57    58    1
    42    37    38    2
    43    26    29    1
    44    55    59   am
    45    29    30    1
    46    20    21    1
    47    20    19    1
    48    21    22    2
    49    30    86    1
    50    14    13    2
    51    59    60    1
    52    19    13   am
    53    13    12    1
    54    60    63    1
    55    60    61    1
    56    86    85    1
    57    63    64    1
    58    65    64   ar
    59    65    67   ar
    60    61    62    2
    61    61    73   am
    62    12    11    1
    63    12    15    1
    64    64    66   ar
    65    85    82    1
    66    18    16   ar
    67    67    68   ar
    68    73    74    1
    69    15    16    1
    70    16    17   ar
    71    66    68   ar
    72    66    69   ar
    73    88    89    1
    74    88    87    1
    75    89    90    2
    76    82    81    1
    77    82    83    1
    78    68    70   ar
    79    80    79    2
    80    74    75    1
    81    76    75    2
    82    79    81   am
    83    79    78    1
    84    69    71   ar
    85    83    84    2
    86    78    77    1
    87    70    72   ar
    88    71    72   ar
