@<TRIPOS>MOLECULE
tmp/1c5wB01.pdb
 139 139 0 0 0
SMALL
GASTEIGER

@<TRIPOS>ATOM
      1  N          9.0110    8.7540   14.8250 N.3    46  HIS46      -0.1241
      2  CA         8.9520    9.5500   16.0970 C.3    46  HIS46       0.1621
      3  C         10.3310    9.9570   16.6200 C.2    46  HIS46       0.2264
      4  O         10.4420   10.8540   17.4370 O.2    46  HIS46      -0.2867
      5  CB         8.1430    8.7380   17.2180 C.3    46  HIS46       0.0745
      6  CG         8.8910    7.7510   18.1570 C.ar   46  HIS46       0.0817
      7  ND1        8.7520    6.4470   18.2060 N.ar   46  HIS46      -0.2268
      8  CD2        9.8340    8.0530   19.1570 C.ar   46  HIS46       0.1154
      9  CE1        9.5130    5.9610   19.1330 C.ar   46  HIS46       0.1986
     10  NE2       10.1690    6.9140   19.7140 N.ar   46  HIS46      -0.2212
     11  N          1.7490    5.3280   18.2290 N.3    94  HIS94      -0.1241
     12  CA         2.3670    6.0930   17.1060 C.3    94  HIS94       0.1621
     13  C          1.8590    5.2430   15.9420 C.2    94  HIS94       0.2264
     14  O          1.8950    4.0330   16.0460 O.2    94  HIS94      -0.2867
     15  CB         3.9080    6.0410   17.1450 C.3    94  HIS94       0.0745
     16  CG         4.4940    6.8720   18.3160 C.ar   94  HIS94       0.0817
     17  ND1        4.5430    8.1830   18.4230 N.ar   94  HIS94      -0.2268
     18  CD2        5.0810    6.3870   19.4790 C.ar   94  HIS94       0.1154
     19  CE1        5.1090    8.5010   19.5550 C.ar   94  HIS94       0.1986
     20  NE2        5.4380    7.4230   20.1980 N.ar   94  HIS94      -0.2212
     21  N         12.0250   -6.4510   28.4940 N.3   192  ASP192     -0.1225
     22  CA        11.2320   -5.6640   27.4830 C.3   192  ASP192      0.1805
     23  C         12.1300   -4.5570   26.8970 C.2   192  ASP192      0.2598
     24  O         13.2330   -4.3620   27.3960 O.2   192  ASP192     -0.2718
     25  CB        10.0070   -5.0180   28.2250 C.3   192  ASP192      0.1424
     26  CG         8.9550   -4.3180   27.3550 C.2   192  ASP192      0.3668
     27  OD1        8.9820   -4.4640   26.1550 O.co2 192  ASP192     -0.2456
     28  OD2        8.1360   -3.6550   27.9520 O.co2 192  ASP192     -0.2456
     29  N         11.6350   -3.8810   25.8830 N.am  193  SER193     -0.1938
     30  CA        12.3710   -2.7680   25.2240 C.3   193  SER193      0.2055
     31  C         11.9390   -1.5620   26.1190 C.2   193  SER193      0.2643
     32  O         11.0500   -1.7070   26.9330 O.2   193  SER193     -0.2714
     33  CB        11.8740   -2.5900   23.7430 C.3   193  SER193      0.2130
     34  OG        10.4970   -2.9290   23.7760 O.3   193  SER193     -0.2179
     35  N         12.5570   -0.4310   25.9690 N.am  194  CYS194     -0.1953
     36  CA        12.1810    0.7410   26.8090 C.3   194  CYS194      0.1843
     37  C         12.6400    1.9940   26.0470 C.2   194  CYS194      0.2625
     38  O         13.0820    1.8840   24.9110 O.2   194  CYS194     -0.2714
     39  CB        12.8960    0.6070   28.1940 C.3   194  CYS194      0.0997
     40  SG        12.3070    1.6430   29.5470 S.3   194  CYS194     -0.0797
     41  N         12.5400    3.1160   26.7090 N.am  195  GLN195     -0.1977
     42  CA        12.9340    4.4470   26.1280 C.3   195  GLN195      0.1601
     43  C         14.4180    4.3270   25.7910 C.2   195  GLN195      0.2287
     44  O         15.2060    3.8460   26.5800 O.2   195  GLN195     -0.2864
     45  CB        12.7140    5.5770   27.1910 C.3   195  GLN195      0.0394
     46  CG        11.2260    5.6870   27.6190 C.3   195  GLN195      0.0908
     47  CD        11.0810    6.7310   28.7530 C.2   195  GLN195      0.2608
     48  OE1       11.3960    7.8860   28.5850 O.2   195  GLN195     -0.2717
     49  NE2       10.6250    6.4050   29.9250 N.am  195  GLN195     -0.0878
     50  N         13.7800    2.7790   20.9240 N.3   198  SER198     -0.1217
     51  CA        12.9760    3.1370   19.7070 C.3   198  SER198      0.1889
     52  C         13.7470    3.0110   18.3850 C.2   198  SER198      0.2288
     53  O         14.9310    3.3030   18.3690 O.2   198  SER198     -0.2866
     54  CB        12.5030    4.5990   19.8360 C.3   198  SER198      0.2089
     55  OG        11.3720    4.5040   20.6860 O.3   198  SER198     -0.2183
     56  N         11.0480   -1.1420   17.1800 N.3   216  VAL216     -0.1231
     57  CA        10.5720   -0.7160   18.5090 C.3   216  VAL216      0.1692
     58  C          9.8560    0.6460   18.2720 C.2   216  VAL216      0.2593
     59  O         10.4620    1.5510   17.7150 O.2   216  VAL216     -0.2718
     60  CB        11.8110   -0.5750   19.4500 C.3   216  VAL216      0.0266
     61  CG1       11.2960   -0.3050   20.8640 C.3   216  VAL216      0.0020
     62  CG2       12.6640   -1.8650   19.5440 C.3   216  VAL216      0.0020
     63  N          8.6230    0.7420   18.7080 N.am  217  SER217     -0.1938
     64  CA         7.8100    1.9860   18.5460 C.3   217  SER217      0.2055
     65  C          7.2770    2.5960   19.9060 C.2   217  SER217      0.2643
     66  O          7.5920    3.7250   20.2560 O.2   217  SER217     -0.2714
     67  CB         6.6600    1.5810   17.5640 C.3   217  SER217      0.2130
     68  OG         5.9050    2.7420   17.2090 O.3   217  SER217     -0.2179
     69  N          6.4760    1.8800   20.6540 N.am  218  TRP218     -0.1959
     70  CA         5.9610    2.4520   21.9440 C.3   218  TRP218      0.1771
     71  C          5.5960    1.3520   22.9040 C.2   218  TRP218      0.2620
     72  O          5.6740    0.1860   22.5750 O.2   218  TRP218     -0.2715
     73  CB         4.6970    3.3290   21.7280 C.3   218  TRP218      0.0590
     74  CG         3.5610    2.6670   20.9100 C.ar  218  TRP218      0.0006
     75  CD1        3.5770    2.4990   19.5630 C.ar  218  TRP218      0.0946
     76  CD2        2.3880    2.1740   21.4060 C.ar  218  TRP218      0.0152
     77  NE1        2.4120    1.9160   19.3240 N.ar  218  TRP218     -0.2442
     78  CE2        1.6160    1.6780   20.3530 C.ar  218  TRP218      0.0810
     79  CE3        1.8880    2.1010   22.6990 C.ar  218  TRP218      0.0012
     80  CZ2        0.3670    1.1100   20.5950 C.ar  218  TRP218      0.0191
     81  CZ3        0.6370    1.5320   22.9420 C.ar  218  TRP218      0.0001
     82  CH2       -0.1260    1.0410   21.8920 C.ar  218  TRP218      0.0015
     83  N          5.2040    1.7600   24.0700 N.am  219  GLY219     -0.1940
     84  CA         4.8050    0.8090   25.1310 C.3   219  GLY219      0.2014
     85  C          4.4610    1.6810   26.3290 C.2   219  GLY219      0.2639
     86  O          4.9360    2.8050   26.3860 O.2   219  GLY219     -0.2714
     87  N          3.6660    1.1770   27.2290 N.am  220  ARG220     -0.1963
     88  CA         3.2970    1.9730   28.4270 C.3   220  ARG220      0.1729
     89  C          4.2520    1.4140   29.4770 C.2   220  ARG220      0.2617
     90  O          4.1960    0.2410   29.8150 O.2   220  ARG220     -0.2715
     91  CB         1.8480    1.7080   28.8940 C.3   220  ARG220      0.0348
     92  CG         1.6060    2.5930   30.1600 C.3   220  ARG220      0.0492
     93  CD         0.3340    2.1960   30.8870 C.3   220  ARG220      0.2205
     94  NE         0.3140    2.9630   32.1720 N.pl3 220  ARG220     -0.0865
     95  CZ         0.6010    2.4030   33.3220 C.cat 220  ARG220      0.5346
     96  NH1        0.9380    1.1410   33.3930 N.pl3 220  ARG220      0.1354
     97  NH2        0.5430    3.1410   34.3960 N.pl3 220  ARG220      0.1354
     98  N          5.0970    2.2760   29.9570 N.am  221  GLY221     -0.1940
     99  CA         6.0810    1.8680   30.9780 C.3   221  GLY221      0.2014
    100  C          6.9660    0.8410   30.3020 C.2   221  GLY221      0.2639
    101  O          6.8740    0.6170   29.1050 O.2   221  GLY221     -0.2714
    102  N          7.8010    0.2360   31.0750 N.am  222  CYS222     -0.1953
    103  CA         8.7220   -0.7800   30.5360 C.3   222  CYS222      0.1843
    104  C          8.6830   -1.9820   31.4810 C.2   222  CYS222      0.2625
    105  O          8.8780   -1.8570   32.6780 O.2   222  CYS222     -0.2714
    106  CB        10.0980   -0.1730   30.4810 C.3   222  CYS222      0.0997
    107  SG        10.3190    1.3200   29.4950 S.3   222  CYS222     -0.0797
    108  N          8.4250   -3.0990   30.8680 N.am  223  ALA223     -0.1977
    109  CA         8.3310   -4.4310   31.5240 C.3   223  ALA223      0.1597
    110  C          7.1660   -4.3990   32.5010 C.2   223  ALA223      0.2287
    111  O          7.2640   -4.9210   33.5960 O.2   223  ALA223     -0.2864
    112  CB         9.6900   -4.7560   32.2590 C.3   223  ALA223      0.0319
    113  N          1.2430   -4.9190   29.6490 N.3   227  LYS227     -0.1231
    114  CA         1.6320   -3.7000   28.8670 C.3   227  LYS227      0.1678
    115  C          2.8170   -4.1770   28.0200 C.2   227  LYS227      0.2434
    116  O          3.9710   -3.9390   28.3440 O.2   227  LYS227     -0.2733
    117  CB         2.0620   -2.5500   29.8100 C.3   227  LYS227      0.0284
    118  CG         0.9000   -2.1590   30.8050 C.3   227  LYS227      0.0035
    119  CD        -0.3690   -1.6750   30.0420 C.3   227  LYS227      0.0206
    120  CE        -1.5670   -1.6670   31.0020 C.3   227  LYS227      0.1093
    121  NZ        -2.7720   -1.2240   30.2690 N.3   227  LYS227     -0.1314
    122  N          2.5090   -4.8690   26.9440 N.am  228  PRO228     -0.2718
    123  CA         3.5400   -5.3600   25.9870 C.3   228  PRO228      0.1535
    124  C          4.2520   -4.2090   25.2610 C.2   228  PRO228      0.2599
    125  O          3.8960   -3.0540   25.3720 O.2   228  PRO228     -0.2715
    126  CB         2.7590   -6.2680   25.0210 C.3   228  PRO228      0.0310
    127  CG         1.4490   -6.6060   25.7860 C.3   228  PRO228      0.0237
    128  CD         1.1430   -5.2820   26.5080 C.3   228  PRO228      0.0939
    129  N          5.2540   -4.5630   24.5130 N.am  229  GLY229     -0.1941
    130  CA         5.9920   -3.5250   23.7630 C.3   229  GLY229      0.2014
    131  C          5.2580   -3.5950   22.4350 C.2   229  GLY229      0.2638
    132  O          4.8830   -4.6870   22.0360 O.2   229  GLY229     -0.2714
    133  N          5.0670   -2.4790   21.7860 N.am  230  VAL230     -0.1977
    134  CA         4.3550   -2.4870   20.4770 C.3   230  VAL230      0.1596
    135  C          5.4330   -2.0890   19.4620 C.2   230  VAL230      0.2287
    136  O          6.2340   -1.1930   19.7070 O.2   230  VAL230     -0.2864
    137  CB         3.1920   -1.4740   20.5600 C.3   230  VAL230      0.0276
    138  CG1        2.2620   -1.6350   19.3450 C.3   230  VAL230      0.0022
    139  CG2        2.3700   -1.8200   21.8430 C.3   230  VAL230      0.0022
@<TRIPOS>BOND
     1     1     2    1
     2    13    14    2
     3    13    12    1
     4     2     3    1
     5     2     5    1
     6     3     4    2
     7    12    15    1
     8    12    11    1
     9    15    16    1
    10    56    57    1
    11    68    67    1
    12     5     6    1
    13    67    64    1
    14    59    58    2
    15     6     7   ar
    16     6     8   ar
    17     7     9   ar
    18    58    57    1
    19    58    63   am
    20    16    17   ar
    21    16    18   ar
    22    53    52    2
    23    52    51    1
    24    17    19   ar
    25    57    60    1
    26    64    63    1
    27    64    65    1
    28     9    10   ar
    29     8    10   ar
    30    77    75   ar
    31    77    78   ar
    32   138   137    1
    33    60    62    1
    34    60    61    1
    35   135   136    2
    36   135   134    1
    37    18    20   ar
    38    19    20   ar
    39    75    74   ar
    40    51    54    1
    41    51    50    1
    42    54    55    1
    43    65    66    2
    44    65    69   am
    45    78    80   ar
    46    78    76   ar
    47   134   137    1
    48   134   133    1
    49   137   139    1
    50    80    82   ar
    51    69    70    1
    52    74    76   ar
    53    74    73    1
    54    76    79   ar
    55    73    70    1
    56   133   131   am
    57    82    81   ar
    58    70    71    1
    59   132   131    2
    60   131   130    1
    61    72    71    2
    62    79    81   ar
    63    71    83   am
    64    33    34    1
    65    33    30    1
    66   130   129    1
    67    83    84    1
    68   129   124   am
    69    38    37    2
    70   126   127    1
    71   126   123    1
    72    84    85    1
    73    30    29    1
    74    30    31    1
    75   124   125    2
    76   124   123    1
    77   127   128    1
    78    43    42    1
    79    43    44    2
    80    29    23   am
    81    35    31   am
    82    35    36    1
    83   123   122    1
    84    37    41   am
    85    37    36    1
    86    31    32    2
    87    42    41    1
    88    42    45    1
    89    27    26   ar
    90    85    86    2
    91    85    87   am
    92   128   122    1
    93    36    39    1
    94    23    24    2
    95    23    22    1
    96   122   115   am
    97    45    46    1
    98    87    88    1
    99    26    28   ar
   100    26    25    1
   101    22    25    1
   102    22    21    1
   103    46    47    1
   104   115   116    2
   105   115   114    1
   106    39    40    1
   107    88    91    1
   108    88    89    1
   109    48    47    2
   110    47    49   am
   111   114   113    1
   112   114   117    1
   113    91    92    1
   114   101   100    2
   115    89    90    2
   116    89    98   am
   117   107    40    1
   118   107   106    1
   119   117   118    1
   120    98    99    1
   121   119   118    1
   122   119   120    1
   123    92    93    1
   124   121   120    1
   125   100    99    1
   126   100   102   am
   127   106   103    1
   128   103   102    1
   129   103   104    1
   130   108   104   am
   131   108   109    1
   132    93    94    1
   133   104   105    2
   134   109   112    1
   135   109   110    1
   136    94    95    2
   137   110   111    2
   138    95    96    1
   139    95    97    1
