@<TRIPOS>MOLECULE
tmp/1c5yB01.pdb
 123 122 0 0 0
SMALL
GASTEIGER

@<TRIPOS>ATOM
      1  N          9.1170    8.7440   14.6670 N.3    46  HIS46      -0.1241
      2  CA         9.0500    9.4900   15.9440 C.3    46  HIS46       0.1621
      3  C         10.4110    9.8920   16.4770 C.2    46  HIS46       0.2264
      4  O         10.5200   10.7720   17.3050 O.2    46  HIS46      -0.2867
      5  CB         8.2560    8.6320   16.9870 C.3    46  HIS46       0.0745
      6  CG         9.0060    7.6580   17.8990 C.ar   46  HIS46       0.0817
      7  ND1        8.7090    6.4070   18.1380 N.ar   46  HIS46      -0.2268
      8  CD2       10.1000    7.9200   18.7080 C.ar   46  HIS46       0.1154
      9  CE1        9.5270    5.9190   19.0110 C.ar   46  HIS46       0.1986
     10  NE2       10.3660    6.8240   19.3650 N.ar   46  HIS46      -0.2212
     11  N          1.8410    5.4040   18.1040 N.3    94  HIS94      -0.1241
     12  CA         2.5050    6.1540   17.0240 C.3    94  HIS94       0.1621
     13  C          1.9610    5.2890   15.8750 C.2    94  HIS94       0.2264
     14  O          1.9590    4.0810   16.0200 O.2    94  HIS94      -0.2867
     15  CB         4.0460    6.0410   17.1510 C.3    94  HIS94       0.0745
     16  CG         4.6570    6.9130   18.2760 C.ar   94  HIS94       0.0817
     17  ND1        4.6750    8.2240   18.3170 N.ar   94  HIS94      -0.2268
     18  CD2        5.3210    6.5010   19.4370 C.ar   94  HIS94       0.1154
     19  CE1        5.2880    8.6050   19.3970 C.ar   94  HIS94       0.1986
     20  NE2        5.6860    7.5830   20.0830 N.ar   94  HIS94      -0.2212
     21  N         12.1420   -6.4380   28.4170 N.3   192  ASP192     -0.1225
     22  CA        11.3420   -5.6690   27.4090 C.3   192  ASP192      0.1805
     23  C         12.2310   -4.5580   26.8220 C.2   192  ASP192      0.2598
     24  O         13.3600   -4.3980   27.2760 O.2   192  ASP192     -0.2718
     25  CB        10.1310   -5.0460   28.1680 C.3   192  ASP192      0.1424
     26  CG         9.0710   -4.3300   27.3240 C.2   192  ASP192      0.3668
     27  OD1        9.0500   -4.5030   26.1310 O.co2 192  ASP192     -0.2456
     28  OD2        8.2950   -3.6220   27.9300 O.co2 192  ASP192     -0.2456
     29  N         11.6780   -3.8480   25.8550 N.am  193  SER193     -0.1938
     30  CA        12.3500   -2.7140   25.1710 C.3   193  SER193      0.2055
     31  C         11.9550   -1.5260   26.1050 C.2   193  SER193      0.2643
     32  O         11.1490   -1.6950   27.0020 O.2   193  SER193     -0.2714
     33  CB        11.7620   -2.4780   23.7260 C.3   193  SER193      0.2130
     34  OG        10.4310   -2.9760   23.7270 O.3   193  SER193     -0.2179
     35  N         12.5370   -0.3840   25.8800 N.am  194  CYS194     -0.1953
     36  CA        12.2190    0.7900   26.7280 C.3   194  CYS194      0.1843
     37  C         12.7330    1.9940   25.9570 C.2   194  CYS194      0.2625
     38  O         13.3080    1.8490   24.8910 O.2   194  CYS194     -0.2714
     39  CB        12.9480    0.6220   28.0830 C.3   194  CYS194      0.0997
     40  SG        12.4140    1.6320   29.4800 S.3   194  CYS194     -0.0797
     41  N         12.5020    3.1240   26.5620 N.am  195  GLN195     -0.1963
     42  CA        12.9040    4.4600   26.0330 C.3   195  GLN195      0.1733
     43  C         14.3830    4.3300   25.6980 C.2   195  GLN195      0.2616
     44  O         15.1360    3.7720   26.4740 O.2   195  GLN195     -0.2715
     45  CB        12.7270    5.5710   27.1130 C.3   195  GLN195      0.0408
     46  CG        11.2540    5.7050   27.5790 C.3   195  GLN195      0.0908
     47  CD        11.2410    6.4170   28.9420 C.2   195  GLN195      0.2608
     48  OE1       11.6330    7.5540   29.0790 O.2   195  GLN195     -0.2717
     49  NE2       10.8090    5.7990   30.0000 N.am  195  GLN195     -0.0878
     50  N         14.7680    4.8440   24.5820 N.am  196  GLY196     -0.1955
     51  CA        16.1700    4.8020   24.0930 C.3   196  GLY196      0.1869
     52  C         16.3060    3.6030   23.1340 C.2   196  GLY196      0.2309
     53  O         17.2710    3.5030   22.3980 O.2   196  GLY196     -0.2863
     54  N         13.9830    2.8570   20.8910 N.3   198  SER198     -0.1217
     55  CA        13.1790    3.2340   19.6920 C.3   198  SER198      0.1889
     56  C         13.9320    3.1000   18.3860 C.2   198  SER198      0.2288
     57  O         15.1260    3.3650   18.3760 O.2   198  SER198     -0.2866
     58  CB        12.7430    4.6940   19.8060 C.3   198  SER198      0.2089
     59  OG        11.5100    4.6250   20.4910 O.3   198  SER198     -0.2183
     60  N         11.1310   -1.1090   17.1000 N.3   216  VAL216     -0.1231
     61  CA        10.6600   -0.6690   18.4460 C.3   216  VAL216      0.1692
     62  C          9.9110    0.7020   18.1900 C.2   216  VAL216      0.2593
     63  O         10.4740    1.6130   17.5940 O.2   216  VAL216     -0.2718
     64  CB        11.9280   -0.5140   19.3990 C.3   216  VAL216      0.0266
     65  CG1       11.4500   -0.1750   20.8030 C.3   216  VAL216      0.0020
     66  CG2       12.7700   -1.8290   19.5540 C.3   216  VAL216      0.0020
     67  N          8.6860    0.7940   18.6300 N.am  217  SER217     -0.1938
     68  CA         7.8470    2.0270   18.4520 C.3   217  SER217      0.2055
     69  C          7.3100    2.6120   19.7930 C.2   217  SER217      0.2643
     70  O          7.6330    3.7480   20.0730 O.2   217  SER217     -0.2714
     71  CB         6.6950    1.6140   17.4540 C.3   217  SER217      0.2130
     72  OG         5.8200    2.7230   17.2650 O.3   217  SER217     -0.2179
     73  N          6.5190    1.9120   20.5780 N.am  218  TRP218     -0.1959
     74  CA         6.0190    2.5040   21.8690 C.3   218  TRP218      0.1771
     75  C          5.6560    1.4330   22.8770 C.2   218  TRP218      0.2620
     76  O          5.7700    0.2460   22.6280 O.2   218  TRP218     -0.2715
     77  CB         4.7650    3.3650   21.6530 C.3   218  TRP218      0.0590
     78  CG         3.6240    2.6970   20.8550 C.ar  218  TRP218      0.0006
     79  CD1        3.5850    2.5410   19.4980 C.ar  218  TRP218      0.0946
     80  CD2        2.4620    2.1940   21.3750 C.ar  218  TRP218      0.0152
     81  NE1        2.4200    1.9690   19.2750 N.ar  218  TRP218     -0.2442
     82  CE2        1.6670    1.7180   20.3340 C.ar  218  TRP218      0.0810
     83  CE3        1.9960    2.0950   22.6870 C.ar  218  TRP218      0.0012
     84  CZ2        0.4200    1.1580   20.6000 C.ar  218  TRP218      0.0191
     85  CZ3        0.7510    1.5310   22.9440 C.ar  218  TRP218      0.0001
     86  CH2       -0.0340    1.0670   21.9090 C.ar  218  TRP218      0.0015
     87  N          5.2140    1.8710   24.0060 N.am  219  GLY219     -0.1954
     88  CA         4.8230    0.9120   25.0670 C.3   219  GLY219      0.1869
     89  C          4.4610    1.7250   26.2970 C.2   219  GLY219      0.2309
     90  O          4.8760    2.8680   26.4040 O.2   219  GLY219     -0.2863
     91  N          5.0980    2.2730   29.9850 N.3   221  GLY221     -0.1210
     92  CA         6.0900    1.8560   30.9920 C.3   221  GLY221      0.1956
     93  C          7.0220    0.8810   30.2950 C.2   221  GLY221      0.2612
     94  O          7.0100    0.7490   29.0830 O.2   221  GLY221     -0.2717
     95  N          7.8120    0.2180   31.0680 N.am  222  CYS222     -0.1970
     96  CA         8.7490   -0.7560   30.4870 C.3   222  CYS222      0.1712
     97  C          8.6650   -1.9490   31.4210 C.2   222  CYS222      0.2296
     98  O          8.7110   -1.7930   32.6280 O.2   222  CYS222     -0.2864
     99  CB        10.1410   -0.1730   30.4660 C.3   222  CYS222      0.0983
    100  SG        10.4170    1.3470   29.5400 S.3   222  CYS222     -0.0798
    101  N          5.2820   -4.4910   24.3680 N.3   229  GLY229     -0.1210
    102  CA         6.0100   -3.4260   23.6350 C.3   229  GLY229      0.1956
    103  C          5.2640   -3.5160   22.3210 C.2   229  GLY229      0.2612
    104  O          4.8580   -4.6100   21.9610 O.2   229  GLY229     -0.2717
    105  N          5.0850   -2.4220   21.6370 N.am  230  VAL230     -0.1965
    106  CA         4.3640   -2.4560   20.3360 C.3   230  VAL230      0.1727
    107  C          5.4420   -2.0730   19.3030 C.2   230  VAL230      0.2616
    108  O          6.2170   -1.1540   19.5310 O.2   230  VAL230     -0.2715
    109  CB         3.1910   -1.4380   20.4150 C.3   230  VAL230      0.0290
    110  CG1        2.2370   -1.6380   19.2150 C.3   230  VAL230      0.0023
    111  CG2        2.4050   -1.6920   21.7390 C.3   230  VAL230      0.0023
    112  N          5.4540   -2.7750   18.2060 N.am  231  TYR231     -0.1974
    113  CA         6.4290   -2.5560   17.1240 C.3   231  TYR231      0.1639
    114  C          5.7170   -2.2870   15.8210 C.2   231  TYR231      0.2290
    115  O          4.5960   -2.7230   15.6600 O.2   231  TYR231     -0.2864
    116  CB         7.3100   -3.8360   16.9430 C.3   231  TYR231      0.0560
    117  CG         8.0250   -4.1810   18.2470 C.ar  231  TYR231     -0.0198
    118  CD1        7.3340   -4.6610   19.3290 C.ar  231  TYR231     -0.0009
    119  CD2        9.3710   -3.9830   18.3520 C.ar  231  TYR231     -0.0009
    120  CE1        7.9800   -4.9340   20.5220 C.ar  231  TYR231      0.0417
    121  CE2       10.0270   -4.2510   19.5270 C.ar  231  TYR231      0.0417
    122  CZ         9.3430   -4.7230   20.6250 C.ar  231  TYR231      0.1957
    123  OH        10.0310   -4.9380   21.8010 O.3   231  TYR231     -0.2866
@<TRIPOS>BOND
     1     1     2    1
     2   115   114    2
     3   114   113    1
     4    13    14    2
     5    13    12    1
     6     2     3    1
     7     2     5    1
     8     3     4    2
     9   116   113    1
    10   116   117    1
    11     5     6    1
    12    12    15    1
    13    12    11    1
    14    60    61    1
    15   113   112    1
    16    15    16    1
    17    72    71    1
    18    71    68    1
    19    63    62    2
    20     6     7   ar
    21     6     8   ar
    22     7     9   ar
    23    62    61    1
    24    62    67   am
    25   112   107   am
    26   117   119   ar
    27   117   118   ar
    28    16    17   ar
    29    16    18   ar
    30    17    19   ar
    31   119   121   ar
    32    57    56    2
    33    56    55    1
    34    61    64    1
    35    68    67    1
    36    68    69    1
    37     8    10   ar
    38     9    10   ar
    39   110   109    1
    40    81    79   ar
    41    81    82   ar
    42   107   108    2
    43   107   106    1
    44   118   120   ar
    45    19    20   ar
    46    64    66    1
    47    64    65    1
    48    18    20   ar
    49    79    78   ar
    50   121   122   ar
    51    55    58    1
    52    55    54    1
    53    69    70    2
    54    69    73   am
    55    58    59    1
    56    82    84   ar
    57    82    80   ar
    58   106   109    1
    59   106   105    1
    60   109   111    1
    61   120   122   ar
    62    73    74    1
    63    84    86   ar
    64   122   123    1
    65    78    80   ar
    66    78    77    1
    67    80    83   ar
    68   105   103   am
    69    77    74    1
    70    74    75    1
    71    86    85   ar
    72   104   103    2
    73   103   102    1
    74    53    52    2
    75    76    75    2
    76    83    85   ar
    77    75    87   am
    78    52    51    1
    79   102   101    1
    80    33    34    1
    81    33    30    1
    82    87    88    1
    83    51    50    1
    84    50    43   am
    85    38    37    2
    86    88    89    1
    87    30    29    1
    88    30    31    1
    89    43    42    1
    90    43    44    2
    91    29    23   am
    92    35    31   am
    93    35    36    1
    94    37    41   am
    95    37    36    1
    96    42    41    1
    97    42    45    1
    98    31    32    2
    99    27    26   ar
   100    89    90    2
   101    36    39    1
   102    23    24    2
   103    23    22    1
   104    45    46    1
   105    26    28   ar
   106    26    25    1
   107    22    25    1
   108    22    21    1
   109    46    47    1
   110    39    40    1
   111    47    48    2
   112    47    49   am
   113    94    93    2
   114    40   100    1
   115   100    99    1
   116    91    92    1
   117    93    92    1
   118    93    95   am
   119    99    96    1
   120    96    95    1
   121    96    97    1
   122    97    98    2
