@<TRIPOS>MOLECULE
tmp/1c5zB02.pdb
 124 124 0 0 0
SMALL
GASTEIGER

@<TRIPOS>ATOM
      1  N          9.1020    8.7920   14.7170 N.3    46  HIS46      -0.1241
      2  CA         9.0420    9.5840   15.9650 C.3    46  HIS46       0.1621
      3  C         10.4450    9.8790   16.4980 C.2    46  HIS46       0.2264
      4  O         10.6130   10.7450   17.3350 O.2    46  HIS46      -0.2867
      5  CB         8.1300    8.8170   17.0160 C.3    46  HIS46       0.0745
      6  CG         8.8520    7.9130   17.9910 C.ar   46  HIS46       0.0817
      7  ND1        8.8010    6.6050   18.1530 N.ar   46  HIS46      -0.2268
      8  CD2        9.7350    8.3820   18.9410 C.ar   46  HIS46       0.1154
      9  CE1        9.5910    6.2730   19.1290 C.ar   46  HIS46       0.1986
     10  NE2       10.1520    7.3450   19.6050 N.ar   46  HIS46      -0.2212
     11  N         11.9090   -6.3050   28.4280 N.3   192  ASP192     -0.1225
     12  CA        11.0860   -5.5450   27.4140 C.3   192  ASP192      0.1805
     13  C         12.0090   -4.4560   26.8370 C.2   192  ASP192      0.2598
     14  O         13.1130   -4.2760   27.3340 O.2   192  ASP192     -0.2718
     15  CB         9.8140   -4.9120   28.1820 C.3   192  ASP192      0.1424
     16  CG         8.8480   -4.0470   27.3470 C.2   192  ASP192      0.3668
     17  OD1        8.8280   -4.1700   26.1480 O.co2 192  ASP192     -0.2456
     18  OD2        8.1270   -3.2670   27.9290 O.co2 192  ASP192     -0.2456
     19  N         11.5490   -3.7730   25.8170 N.am  193  SER193     -0.1938
     20  CA        12.3510   -2.6770   25.1910 C.3   193  SER193      0.2055
     21  C         12.0010   -1.4420   26.0640 C.2   193  SER193      0.2643
     22  O         11.0720   -1.4890   26.8440 O.2   193  SER193     -0.2714
     23  CB        11.8930   -2.4820   23.7300 C.3   193  SER193      0.2130
     24  OG        10.5030   -2.7780   23.7050 O.3   193  SER193     -0.2179
     25  N         12.7070   -0.3640   25.9580 N.am  194  CYS194     -0.1953
     26  CA        12.3400    0.8070   26.8150 C.3   194  CYS194      0.1843
     27  C         12.7890    2.0340   26.0490 C.2   194  CYS194      0.2625
     28  O         13.2650    1.9020   24.9310 O.2   194  CYS194     -0.2714
     29  CB        13.0550    0.6680   28.2370 C.3   194  CYS194      0.0997
     30  SG        12.4470    1.6710   29.6250 S.3   194  CYS194     -0.0797
     31  N         12.6250    3.1640   26.6790 N.am  195  GLN195     -0.1977
     32  CA        13.0100    4.4760   26.0610 C.3   195  GLN195      0.1601
     33  C         14.4810    4.3230   25.7180 C.2   195  GLN195      0.2287
     34  O         15.2220    3.7200   26.4770 O.2   195  GLN195     -0.2864
     35  CB        12.7770    5.6210   27.0920 C.3   195  GLN195      0.0394
     36  CG        11.2940    5.7330   27.4730 C.3   195  GLN195      0.0908
     37  CD        11.1900    6.5260   28.7800 C.2   195  GLN195      0.2608
     38  OE1       11.3810    7.7230   28.8230 O.2   195  GLN195     -0.2717
     39  NE2       10.9040    5.9270   29.9010 N.am  195  GLN195     -0.0878
     40  N         13.8650    2.7680   20.9300 N.3   198  SER198     -0.1217
     41  CA        13.0960    3.0820   19.6980 C.3   198  SER198      0.1889
     42  C         13.9130    2.9820   18.4190 C.2   198  SER198      0.2288
     43  O         15.1230    3.1610   18.4620 O.2   198  SER198     -0.2866
     44  CB        12.5190    4.5190   19.8380 C.3   198  SER198      0.2089
     45  OG        11.4120    4.3160   20.7180 O.3   198  SER198     -0.2183
     46  N         11.0790   -1.1010   17.2410 N.3   216  VAL216     -0.1231
     47  CA        10.6120   -0.6790   18.6030 C.3   216  VAL216      0.1692
     48  C          9.9080    0.6980   18.3510 C.2   216  VAL216      0.2593
     49  O         10.5350    1.5700   17.7660 O.2   216  VAL216     -0.2718
     50  CB        11.9100   -0.6080   19.4970 C.3   216  VAL216      0.0266
     51  CG1       11.5300   -0.3010   20.9720 C.3   216  VAL216      0.0020
     52  CG2       12.7040   -1.9540   19.4930 C.3   216  VAL216      0.0020
     53  N          8.6700    0.8340   18.7910 N.am  217  SER217     -0.1938
     54  CA         7.8480    2.0810   18.6240 C.3   217  SER217      0.2055
     55  C          7.3140    2.6900   19.9720 C.2   217  SER217      0.2643
     56  O          7.7010    3.7910   20.3170 O.2   217  SER217     -0.2714
     57  CB         6.7010    1.6750   17.6460 C.3   217  SER217      0.2130
     58  OG         5.8840    2.7950   17.3180 O.3   217  SER217     -0.2179
     59  N          6.4490    2.0220   20.7030 N.am  218  TRP218     -0.1959
     60  CA         5.9270    2.5910   21.9980 C.3   218  TRP218      0.1771
     61  C          5.5860    1.4900   22.9960 C.2   218  TRP218      0.2620
     62  O          5.8380    0.3260   22.7560 O.2   218  TRP218     -0.2715
     63  CB         4.6360    3.4600   21.7640 C.3   218  TRP218      0.0590
     64  CG         3.5530    2.7740   20.9180 C.ar  218  TRP218      0.0006
     65  CD1        3.5920    2.6020   19.5670 C.ar  218  TRP218      0.0946
     66  CD2        2.3940    2.2720   21.3860 C.ar  218  TRP218      0.0152
     67  NE1        2.4400    2.0070   19.3090 N.ar  218  TRP218     -0.2442
     68  CE2        1.6390    1.7610   20.3380 C.ar  218  TRP218      0.0810
     69  CE3        1.9290    2.2160   22.6880 C.ar  218  TRP218      0.0012
     70  CZ2        0.4010    1.1890   20.6080 C.ar  218  TRP218      0.0191
     71  CZ3        0.7070    1.6490   22.9570 C.ar  218  TRP218      0.0001
     72  CH2       -0.0600    1.1370   21.9180 C.ar  218  TRP218      0.0015
     73  N          5.0330    1.8550   24.1040 N.am  219  GLY219     -0.1940
     74  CA         4.6560    0.8550   25.1350 C.3   219  GLY219      0.2014
     75  C          4.4030    1.6690   26.3800 C.2   219  GLY219      0.2639
     76  O          5.0300    2.7110   26.5080 O.2   219  GLY219     -0.2714
     77  N          3.5320    1.2090   27.2490 N.am  220  ARG220     -0.1963
     78  CA         3.2640    1.9910   28.4910 C.3   220  ARG220      0.1729
     79  C          4.2950    1.4670   29.4860 C.2   220  ARG220      0.2617
     80  O          4.3560    0.2850   29.7930 O.2   220  ARG220     -0.2715
     81  CB         1.8690    1.7220   29.0820 C.3   220  ARG220      0.0348
     82  CG         1.6540    2.7900   30.2110 C.3   220  ARG220      0.0492
     83  CD         0.4350    2.4830   31.0730 C.3   220  ARG220      0.2205
     84  NE         0.4020    3.5130   32.1610 N.pl3 220  ARG220     -0.0865
     85  CZ         0.5770    3.2240   33.4300 C.cat 220  ARG220      0.5346
     86  NH1        0.8070    2.0030   33.8330 N.pl3 220  ARG220      0.1354
     87  NH2        0.5140    4.2090   34.2820 N.pl3 220  ARG220      0.1354
     88  N          5.0800    2.3830   29.9720 N.am  221  GLY221     -0.1940
     89  CA         6.1220    1.9930   30.9390 C.3   221  GLY221      0.2014
     90  C          7.0290    1.0110   30.2270 C.2   221  GLY221      0.2639
     91  O          7.0220    0.9160   29.0020 O.2   221  GLY221     -0.2714
     92  N          7.7940    0.3110   31.0080 N.am  222  CYS222     -0.1967
     93  CA         8.7260   -0.6820   30.4350 C.3   222  CYS222      0.1712
     94  C          8.6840   -1.9130   31.3380 C.2   222  CYS222      0.2296
     95  O          8.9550   -1.8540   32.5230 O.2   222  CYS222     -0.2864
     96  CB        10.0960   -0.1170   30.4090 C.3   222  CYS222      0.0983
     97  SG        10.4600    1.3750   29.4840 S.3   222  CYS222     -0.0798
     98  N          1.2010   -4.8000   29.5880 N.3   227  LYS227     -0.1231
     99  CA         1.5790   -3.6190   28.7670 C.3   227  LYS227      0.1678
    100  C          2.7570   -4.1660   27.9580 C.2   227  LYS227      0.2434
    101  O          3.9160   -4.0020   28.3200 O.2   227  LYS227     -0.2733
    102  CB         2.0130   -2.4480   29.6660 C.3   227  LYS227      0.0284
    103  CG         0.8900   -2.0530   30.6630 C.3   227  LYS227      0.0035
    104  CD        -0.4740   -1.6880   29.9560 C.3   227  LYS227      0.0206
    105  CE        -1.6040   -1.6250   31.0310 C.3   227  LYS227      0.1093
    106  NZ        -2.9290   -1.5260   30.3760 N.3   227  LYS227     -0.1314
    107  N          2.4330   -4.8440   26.8800 N.am  228  PRO228     -0.2718
    108  CA         3.4380   -5.3210   25.8960 C.3   228  PRO228      0.1535
    109  C          4.1690   -4.1630   25.2320 C.2   228  PRO228      0.2599
    110  O          3.8160   -3.0140   25.3960 O.2   228  PRO228     -0.2715
    111  CB         2.6290   -6.1420   24.8880 C.3   228  PRO228      0.0310
    112  CG         1.3180   -6.4870   25.6460 C.3   228  PRO228      0.0237
    113  CD         1.0550   -5.2530   26.4720 C.3   228  PRO228      0.0939
    114  N          5.1640   -4.4950   24.4810 N.am  229  GLY229     -0.1941
    115  CA         5.9280   -3.4400   23.7810 C.3   229  GLY229      0.2014
    116  C          5.2130   -3.4720   22.4480 C.2   229  GLY229      0.2638
    117  O          4.8280   -4.5590   22.0430 O.2   229  GLY229     -0.2714
    118  N          5.0380   -2.3540   21.7900 N.am  230  VAL230     -0.1977
    119  CA         4.3300   -2.3630   20.4610 C.3   230  VAL230      0.1596
    120  C          5.3860   -1.9970   19.4360 C.2   230  VAL230      0.2287
    121  O          6.1960   -1.1100   19.6730 O.2   230  VAL230     -0.2864
    122  CB         3.1790   -1.3400   20.5160 C.3   230  VAL230      0.0276
    123  CG1        2.3030   -1.4750   19.2620 C.3   230  VAL230      0.0022
    124  CG2        2.3000   -1.6860   21.7650 C.3   230  VAL230      0.0022
@<TRIPOS>BOND
     1     1     2    1
     2     2     3    1
     3     2     5    1
     4     3     4    2
     5     5     6    1
     6    46    47    1
     7    58    57    1
     8    57    54    1
     9    49    48    2
    10     6     7   ar
    11     6     8   ar
    12     7     9   ar
    13    48    47    1
    14    48    53   am
    15    42    43    2
    16    42    41    1
    17    47    50    1
    18    54    53    1
    19    54    55    1
    20     8    10   ar
    21     9    10   ar
    22   123   122    1
    23    67    65   ar
    24    67    68   ar
    25   120   121    2
    26   120   119    1
    27    52    50    1
    28    50    51    1
    29    65    64   ar
    30    41    44    1
    31    41    40    1
    32    44    45    1
    33    55    56    2
    34    55    59   am
    35    68    70   ar
    36    68    66   ar
    37   119   122    1
    38   119   118    1
    39   122   124    1
    40    70    72   ar
    41    59    60    1
    42    64    66   ar
    43    64    63    1
    44    66    69   ar
    45    63    60    1
    46   118   116   am
    47    72    71   ar
    48    60    61    1
    49   117   116    2
    50   116   115    1
    51    69    71   ar
    52    62    61    2
    53    61    73   am
    54    24    23    1
    55    23    20    1
    56   115   114    1
    57    73    74    1
    58   114   109   am
    59   111   112    1
    60   111   108    1
    61    28    27    2
    62    74    75    1
    63    20    19    1
    64    20    21    1
    65   109   110    2
    66   109   108    1
    67   112   113    1
    68    33    32    1
    69    33    34    2
    70    19    13   am
    71   108   107    1
    72    25    21   am
    73    25    26    1
    74    27    31   am
    75    27    26    1
    76    32    31    1
    77    32    35    1
    78    21    22    2
    79    17    16   ar
    80    75    76    2
    81    75    77   am
    82   113   107    1
    83    26    29    1
    84    13    14    2
    85    13    12    1
    86   107   100   am
    87    35    36    1
    88    77    78    1
    89    16    18   ar
    90    16    15    1
    91    12    15    1
    92    12    11    1
    93    36    37    1
    94   100   101    2
    95   100    99    1
    96    29    30    1
    97    78    81    1
    98    78    79    1
    99    99    98    1
   100    99   102    1
   101    37    38    2
   102    37    39   am
   103    91    90    2
   104    81    82    1
   105    97    30    1
   106    97    96    1
   107    79    80    2
   108    79    88   am
   109   102   103    1
   110   104   103    1
   111   104   105    1
   112    88    89    1
   113    82    83    1
   114    90    89    1
   115    90    92   am
   116   106   105    1
   117    96    93    1
   118    93    92    1
   119    93    94    1
   120    83    84    1
   121    94    95    2
   122    84    85    2
   123    85    86    1
   124    85    87    1
