@<TRIPOS>MOLECULE
tmp/1c5zB01.pdb
 82 79 0 0 0
SMALL
GASTEIGER

@<TRIPOS>ATOM
      1  N         20.2980    9.1210   20.0270 N.3    30  VAL30      -0.1231
      2  CA        18.8830    9.3890   19.7250 C.3    30  VAL30       0.1692
      3  C         18.0780    8.0780   19.7740 C.2    30  VAL30       0.2592
      4  O         17.3380    7.8740   20.7140 O.2    30  VAL30      -0.2718
      5  CB        18.8000   10.0510   18.2990 C.3    30  VAL30       0.0266
      6  CG1       17.3410   10.2070   17.8070 C.3    30  VAL30       0.0020
      7  CG2       19.4330   11.4420   18.3640 C.3    30  VAL30       0.0020
      8  N         18.2630    7.2610   18.7730 N.am   31  CYS31      -0.1970
      9  CA        17.5480    5.9520   18.6470 C.3    31  CYS31       0.1712
     10  C         18.4460    4.9390   17.9300 C.2    31  CYS31       0.2296
     11  O         19.5430    5.2830   17.5260 O.2    31  CYS31      -0.2864
     12  CB        16.2470    6.1760   17.8220 C.3    31  CYS31       0.0983
     13  SG        14.8650    7.1160   18.5310 S.3    31  CYS31      -0.0798
     14  N          9.1020    8.7920   14.7170 N.3    46  HIS46      -0.1226
     15  CA         9.0420    9.5840   15.9650 C.3    46  HIS46       0.1752
     16  C         10.4450    9.8790   16.4980 C.2    46  HIS46       0.2596
     17  O         10.6130   10.7450   17.3350 O.2    46  HIS46      -0.2718
     18  CB         8.1300    8.8170   17.0160 C.3    46  HIS46       0.0759
     19  CG         8.8520    7.9130   17.9910 C.ar   46  HIS46       0.0818
     20  ND1        8.8010    6.6050   18.1530 N.ar   46  HIS46      -0.2268
     21  CD2        9.7350    8.3820   18.9410 C.ar   46  HIS46       0.1154
     22  CE1        9.5910    6.2730   19.1290 C.ar   46  HIS46       0.1986
     23  NE2       10.1520    7.3450   19.6050 N.ar   46  HIS46      -0.2212
     24  N         11.4430    9.1950   16.0240 N.am   47  CYS47      -0.1970
     25  CA        12.8110    9.5030   16.5530 C.3    47  CYS47       0.1712
     26  C         13.3550   10.8390   15.9440 C.2    47  CYS47       0.2296
     27  O         14.1760   11.5100   16.5390 O.2    47  CYS47      -0.2864
     28  CB        13.7480    8.3330   16.1940 C.3    47  CYS47       0.0983
     29  SG        13.4320    6.8460   17.1650 S.3    47  CYS47      -0.0798
     30  N          1.8950    5.4380   18.1750 N.3    94  HIS94      -0.1241
     31  CA         2.4940    6.2060   17.0420 C.3    94  HIS94       0.1621
     32  C          1.9840    5.3510   15.8710 C.2    94  HIS94       0.2264
     33  O          2.1320    4.1420   15.9350 O.2    94  HIS94      -0.2867
     34  CB         4.0430    6.1690   17.0720 C.3    94  HIS94       0.0745
     35  CG         4.6470    6.9850   18.2370 C.ar   94  HIS94       0.0817
     36  ND1        4.7890    8.2960   18.3030 N.ar   94  HIS94      -0.2268
     37  CD2        5.1560    6.4860   19.4340 C.ar   94  HIS94       0.1154
     38  CE1        5.3380    8.6110   19.4360 C.ar   94  HIS94       0.1986
     39  NE2        5.5650    7.5250   20.1280 N.ar   94  HIS94      -0.2212
     40  N         21.6550    6.1810   29.6860 N.3   150  TYR150     -0.1241
     41  CA        21.5610    4.8950   28.9200 C.3   150  TYR150      0.1605
     42  C         22.8400    4.1020   29.2610 C.2   150  TYR150      0.2264
     43  O         23.8550    4.6810   29.6310 O.2   150  TYR150     -0.2867
     44  CB        21.5840    5.1050   27.4050 C.3   150  TYR150      0.0534
     45  CG        20.3470    5.8560   26.8760 C.ar  150  TYR150     -0.0201
     46  CD1       19.1120    5.7180   27.4420 C.ar  150  TYR150     -0.0009
     47  CD2       20.4840    6.6690   25.7860 C.ar  150  TYR150     -0.0009
     48  CE1       18.0240    6.3740   26.9360 C.ar  150  TYR150      0.0417
     49  CE2       19.4060    7.3270   25.2780 C.ar  150  TYR150      0.0417
     50  CZ        18.1730    7.1880   25.8420 C.ar  150  TYR150      0.1957
     51  OH        17.1310    7.8650   25.2710 O.3   150  TYR150     -0.2866
     52  N         12.7070   -0.3640   25.9580 N.3   194  CYS194     -0.1221
     53  CA        12.3400    0.8070   26.8150 C.3   194  CYS194      0.1808
     54  C         12.7890    2.0340   26.0490 C.2   194  CYS194      0.2601
     55  O         13.2650    1.9020   24.9310 O.2   194  CYS194     -0.2717
     56  CB        13.0550    0.6680   28.2370 C.3   194  CYS194      0.0970
     57  SG        12.4470    1.6710   29.6250 S.3   194  CYS194     -0.0800
     58  N         12.6250    3.1640   26.6790 N.am  195  GLN195     -0.1965
     59  CA        13.0100    4.4760   26.0610 C.3   195  GLN195      0.1733
     60  C         14.4810    4.3230   25.7180 C.2   195  GLN195      0.2616
     61  O         15.2220    3.7200   26.4770 O.2   195  GLN195     -0.2715
     62  CB        12.7770    5.6210   27.0920 C.3   195  GLN195      0.0408
     63  CG        11.2940    5.7330   27.4730 C.3   195  GLN195      0.0908
     64  CD        11.1900    6.5260   28.7800 C.2   195  GLN195      0.2608
     65  OE1       11.3810    7.7230   28.8230 O.2   195  GLN195     -0.2717
     66  NE2       10.9040    5.9270   29.9010 N.am  195  GLN195     -0.0878
     67  N         14.8610    4.8730   24.6010 N.am  196  GLY196     -0.1955
     68  CA        16.2610    4.8090   24.0990 C.3   196  GLY196      0.1869
     69  C         16.3370    3.5950   23.1590 C.2   196  GLY196      0.2309
     70  O         17.2810    3.4250   22.4110 O.2   196  GLY196     -0.2863
     71  N         13.8650    2.7680   20.9300 N.3   198  SER198     -0.1217
     72  CA        13.0960    3.0820   19.6980 C.3   198  SER198      0.1889
     73  C         13.9130    2.9820   18.4190 C.2   198  SER198      0.2288
     74  O         15.1230    3.1610   18.4620 O.2   198  SER198     -0.2866
     75  CB        12.5190    4.5190   19.8380 C.3   198  SER198      0.2089
     76  OG        11.4120    4.3160   20.7180 O.3   198  SER198     -0.2183
     77  N          8.6700    0.8340   18.7910 N.3   217  SER217     -0.1217
     78  CA         7.8480    2.0810   18.6240 C.3   217  SER217      0.1889
     79  C          7.3140    2.6900   19.9720 C.2   217  SER217      0.2288
     80  O          7.7010    3.7910   20.3170 O.2   217  SER217     -0.2866
     81  CB         6.7010    1.6750   17.6460 C.3   217  SER217      0.2089
     82  OG         5.8840    2.7950   17.3180 O.3   217  SER217     -0.2183
@<TRIPOS>BOND
     1    14    15    1
     2    32    33    2
     3    32    31    1
     4    26    27    2
     5    26    25    1
     6    15    16    1
     7    15    18    1
     8    24    16   am
     9    24    25    1
    10    28    25    1
    11    28    29    1
    12    16    17    2
    13    18    19    1
    14    31    34    1
    15    31    30    1
    16    34    35    1
    17    29    13    1
    18    82    81    1
    19    11    10    2
    20    81    78    1
    21     6     5    1
    22    12    13    1
    23    12     9    1
    24    10     9    1
    25    19    20   ar
    26    19    21   ar
    27    20    22   ar
    28    35    36   ar
    29    35    37   ar
    30     5     7    1
    31     5     2    1
    32    36    38   ar
    33    73    74    2
    34    73    72    1
    35    78    77    1
    36    78    79    1
    37     9     8    1
    38     8     3   am
    39    21    23   ar
    40    22    23   ar
    41    37    39   ar
    42    38    39   ar
    43    72    75    1
    44    72    71    1
    45     2     3    1
    46     2     1    1
    47     3     4    2
    48    75    76    1
    49    79    80    2
    50    70    69    2
    51    69    68    1
    52    68    67    1
    53    67    60   am
    54    55    54    2
    55    51    50    1
    56    49    47   ar
    57    49    50   ar
    58    60    59    1
    59    60    61    2
    60    47    45   ar
    61    50    48   ar
    62    52    53    1
    63    54    58   am
    64    54    53    1
    65    59    58    1
    66    59    62    1
    67    53    56    1
    68    45    44    1
    69    45    46   ar
    70    48    46   ar
    71    62    63    1
    72    44    41    1
    73    63    64    1
    74    56    57    1
    75    64    65    2
    76    64    66   am
    77    41    42    1
    78    41    40    1
    79    42    43    2
