@<TRIPOS>MOLECULE
tmp/1c6oB00.pdb
 226 218 0 0 0
SMALL
GASTEIGER

@<TRIPOS>ATOM
      1  N          9.3450   32.8000   15.0340 N.3    10  THR10      -0.1203
      2  CA         8.3680   31.8210   15.5370 C.3    10  THR10       0.1994
      3  C          7.1260   31.9370   14.6350 C.2    10  THR10       0.2617
      4  O          6.5370   30.9320   14.2390 O.2    10  THR10      -0.2717
      5  CB         7.9810   32.0960   17.0470 C.3    10  THR10       0.1784
      6  OG1        9.1120   31.8540   17.9020 O.3    10  THR10      -0.2211
      7  CG2        6.8420   31.1880   17.4890 C.3    10  THR10       0.0376
      8  N          6.7620   33.1730   14.2950 N.am   11  PHE11      -0.1975
      9  CA         5.6310   33.4140   13.4210 C.3    11  PHE11       0.1639
     10  C          5.8510   32.7520   12.0550 C.2    11  PHE11       0.2290
     11  O          4.9680   32.0650   11.5260 O.2    11  PHE11      -0.2864
     12  CB         5.3910   34.9070   13.2260 C.3    11  PHE11       0.0560
     13  CG         4.1590   35.2040   12.4110 C.ar   11  PHE11      -0.0200
     14  CD1        2.9070   35.2420   13.0090 C.ar   11  PHE11      -0.0042
     15  CD2        4.2420   35.3640   11.0360 C.ar   11  PHE11      -0.0042
     16  CE1        1.7630   35.4280   12.2480 C.ar   11  PHE11      -0.0003
     17  CE2        3.1100   35.5510   10.2720 C.ar   11  PHE11      -0.0003
     18  CZ         1.8650   35.5810   10.8760 C.ar   11  PHE11      -0.0000
     19  N          5.8520   28.7370   12.4420 N.3    14  ASN14      -0.1225
     20  CA         4.6310   28.0710   12.8720 C.3    14  ASN14       0.1785
     21  C          3.2980   28.6250   12.4170 C.2    14  ASN14       0.2597
     22  O          2.3420   27.8730   12.2570 O.2    14  ASN14      -0.2718
     23  CB         4.6250   27.9910   14.4080 C.3    14  ASN14       0.1169
     24  CG         5.9130   27.4060   14.9670 C.2    14  ASN14       0.2627
     25  OD1        6.8000   28.1370   15.3960 O.2    14  ASN14      -0.2716
     26  ND2        6.0300   26.0980   14.9420 N.am   14  ASN14      -0.0877
     27  N          3.2300   29.9250   12.1810 N.am   15  CYS15      -0.1970
     28  CA         1.9720   30.5690   11.8160 C.3    15  CYS15       0.1712
     29  C          1.7430   30.9780   10.3450 C.2    15  CYS15       0.2296
     30  O          0.5900   31.0670    9.8890 O.2    15  CYS15      -0.2864
     31  CB         1.8230   31.8160   12.7060 C.3    15  CYS15       0.0983
     32  SG         2.5120   31.5710   14.3690 S.3    15  CYS15      -0.0798
     33  N          2.0310   29.5560    7.5830 N.3    17  ALA17      -0.1231
     34  CA         1.2750   28.6180    6.7700 C.3    17  ALA17       0.1694
     35  C         -0.2170   28.9990    6.6380 C.2    17  ALA17       0.2592
     36  O         -0.8010   28.7780    5.5770 O.2    17  ALA17      -0.2718
     37  CB         1.4020   27.2270    7.3220 C.3    17  ALA17       0.0304
     38  N         -0.8260   29.5890    7.6780 N.am   18  CYS18      -0.1956
     39  CA        -2.2460   29.9800    7.6160 C.3    18  CYS18       0.1843
     40  C         -2.4480   31.4670    7.7700 C.2    18  CYS18       0.2625
     41  O         -3.5350   31.9810    7.4840 O.2    18  CYS18      -0.2714
     42  CB        -3.1030   29.2940    8.7000 C.3    18  CYS18       0.0997
     43  SG        -3.0470   27.5280    8.7700 S.3    18  CYS18      -0.0797
     44  N         -1.4320   32.1660    8.2590 N.am   19  HIS19      -0.1973
     45  CA        -1.5690   33.5910    8.4650 C.3    19  HIS19       0.1656
     46  C         -0.5850   34.4820    7.7470 C.2    19  HIS19       0.2291
     47  O         -0.3250   35.6000    8.2040 O.2    19  HIS19      -0.2864
     48  CB        -1.5150   33.9140    9.9480 C.3    19  HIS19       0.0771
     49  CG        -2.6380   33.3270   10.7420 C.ar   19  HIS19       0.0820
     50  ND1       -3.9460   33.7330   10.5940 N.ar   19  HIS19      -0.2267
     51  CD2       -2.6350   32.4330   11.7580 C.ar   19  HIS19       0.1154
     52  CE1       -4.7000   33.1240   11.4910 C.ar   19  HIS19       0.1986
     53  NE2       -3.9290   32.3320   12.2120 N.ar   19  HIS19      -0.2212
     54  N         -5.9240   35.1560    6.8740 N.3    24  ASN24      -0.1240
     55  CA        -6.4030   33.8540    7.3440 C.3    24  ASN24       0.1653
     56  C         -6.9070   33.0860    6.1460 C.2    24  ASN24       0.2266
     57  O         -7.9510   33.3930    5.5770 O.2    24  ASN24      -0.2867
     58  CB        -7.5380   33.9780    8.3630 C.3    24  ASN24       0.1155
     59  CG        -7.7970   32.6780    9.1100 C.2    24  ASN24       0.2627
     60  OD1       -7.7350   31.5740    8.5410 O.2    24  ASN24      -0.2716
     61  ND2       -8.0640   32.7980   10.4130 N.am   24  ASN24      -0.0877
     62  N         -7.8550   29.9540    6.2120 N.3    26  VAL26      -0.1231
     63  CA        -8.8700   28.9610    6.5680 C.3    26  VAL26       0.1692
     64  C        -10.2320   29.6320    6.6910 C.2    26  VAL26       0.2591
     65  O        -11.1760   29.2290    6.0200 O.2    26  VAL26      -0.2718
     66  CB        -8.4880   28.2000    7.8540 C.3    26  VAL26       0.0266
     67  CG1       -9.4990   27.1220    8.1740 C.3    26  VAL26       0.0020
     68  CG2       -7.1480   27.5600    7.6680 C.3    26  VAL26       0.0020
     69  N        -10.3340   30.6430    7.5480 N.am   27  ILE27      -0.1980
     70  CA       -11.5790   31.3890    7.7130 C.3    27  ILE27       0.1595
     71  C        -11.1590   32.7970    7.3590 C.2    27  ILE27       0.2287
     72  O        -10.7730   33.5720    8.2160 O.2    27  ILE27      -0.2864
     73  CB       -12.1140   31.3720    9.1630 C.3    27  ILE27       0.0276
     74  CG1      -12.3810   29.9410    9.6420 C.3    27  ILE27       0.0022
     75  CG2      -13.3750   32.2210    9.2510 C.3    27  ILE27       0.0022
     76  CD1      -13.5170   29.2240    8.9490 C.3    27  ILE27       0.0001
     77  N        -11.2540   36.1490    9.6330 N.3    30  HIS30      -0.1226
     78  CA       -10.6320   36.1360   10.9470 C.3    30  HIS30       0.1752
     79  C         -9.1260   36.3360   10.8100 C.2    30  HIS30       0.2597
     80  O         -8.3180   35.4530   11.1270 O.2    30  HIS30      -0.2718
     81  CB       -10.9960   34.8330   11.6740 C.3    30  HIS30       0.0759
     82  CG       -12.4240   34.7950   12.1470 C.ar   30  HIS30       0.0818
     83  ND1      -12.7950   34.3080   13.3820 N.ar   30  HIS30      -0.2268
     84  CD2      -13.5700   35.1990   11.5460 C.ar   30  HIS30       0.1154
     85  CE1      -14.1030   34.4110   13.5190 C.ar   30  HIS30       0.1986
     86  NE2      -14.5960   34.9480   12.4180 N.ar   30  HIS30      -0.2212
     87  N         -8.7770   37.5070   10.2860 N.am   31  THR31      -0.1939
     88  CA        -7.3970   37.8830   10.0250 C.3    31  THR31       0.2028
     89  C         -6.6580   38.3500   11.2790 C.2    31  THR31       0.2642
     90  O         -7.2480   38.4410   12.3530 O.2    31  THR31      -0.2714
     91  CB        -7.3470   39.0030    8.9800 C.3    31  THR31       0.1808
     92  OG1       -8.0780   40.1330    9.4590 O.3    31  THR31      -0.2208
     93  CG2       -7.9640   38.5480    7.6880 C.3    31  THR31       0.0379
     94  N         -5.3720   38.6630   11.1280 N.am   32  LEU32      -0.1977
     95  CA        -4.5570   39.1310   12.2360 C.3    32  LEU32       0.1596
     96  C         -4.4750   40.6300   12.2700 C.2    32  LEU32       0.2287
     97  O         -3.5070   41.1970   12.7690 O.2    32  LEU32      -0.2864
     98  CB        -3.1470   38.5660   12.1760 C.3    32  LEU32       0.0297
     99  CG        -3.0650   37.0530   12.2430 C.3    32  LEU32       0.0022
    100  CD1       -1.6300   36.6980   12.5470 C.3    32  LEU32       0.0001
    101  CD2       -4.0180   36.4860   13.3050 C.3    32  LEU32       0.0001
    102  N        -10.3810   43.0450   12.8770 N.3    36  ALA36      -0.1231
    103  CA       -10.8650   41.6730   12.9150 C.3    36  ALA36       0.1694
    104  C        -10.7800   41.1260   14.3300 C.2    36  ALA36       0.2591
    105  O        -11.7430   40.5600   14.8400 O.2    36  ALA36      -0.2718
    106  CB       -10.0600   40.7820   11.9520 C.3    36  ALA36       0.0304
    107  N         -9.6270   41.3080   14.9590 N.am   37  MET37      -0.1979
    108  CA        -9.4230   40.8150   16.3110 C.3    37  MET37       0.1605
    109  C        -10.3410   41.4760   17.2910 C.2    37  MET37       0.2287
    110  O        -10.9210   40.7890   18.1290 O.2    37  MET37      -0.2864
    111  CB        -7.9610   40.9210   16.7490 C.3    37  MET37       0.0413
    112  CG        -7.1310   39.7920   16.1530 C.3    37  MET37       0.0598
    113  SD        -5.4290   39.6440   16.6420 S.3    37  MET37      -0.1393
    114  CE        -4.7270   40.9880   15.7040 C.3    37  MET37       0.0692
    115  N        -13.5630   39.4720   16.5740 N.3    40  PHE40      -0.1227
    116  CA       -13.6250   38.0210   16.7440 C.3    40  PHE40       0.1736
    117  C        -12.8030   37.3520   17.8490 C.2    40  PHE40       0.2595
    118  O        -13.0910   36.2180   18.2290 O.2    40  PHE40      -0.2718
    119  CB       -13.2500   37.3160   15.4230 C.3    40  PHE40       0.0547
    120  CG       -14.0510   37.7530   14.2320 C.ar   40  PHE40      -0.0202
    121  CD1      -15.4320   37.5710   14.1940 C.ar   40  PHE40      -0.0042
    122  CD2      -13.4190   38.3390   13.1320 C.ar   40  PHE40      -0.0042
    123  CE1      -16.1800   37.9700   13.0690 C.ar   40  PHE40      -0.0003
    124  CE2      -14.1520   38.7430   12.0010 C.ar   40  PHE40      -0.0003
    125  CZ       -15.5370   38.5570   11.9740 C.ar   40  PHE40      -0.0000
    126  N        -11.7380   37.9940   18.3130 N.am   41  LEU41      -0.1980
    127  CA       -10.9050   37.3760   19.3240 C.3    41  LEU41       0.1596
    128  C        -11.5390   37.3950   20.7150 C.2    41  LEU41       0.2287
    129  O        -11.8720   38.4440   21.2530 O.2    41  LEU41      -0.2864
    130  CB        -9.5160   38.0200   19.3270 C.3    41  LEU41       0.0297
    131  CG        -8.4930   37.4830   20.3290 C.3    41  LEU41       0.0022
    132  CD1       -8.2720   36.0080   20.1740 C.3    41  LEU41       0.0001
    133  CD2       -7.1900   38.2270   20.1410 C.3    41  LEU41       0.0001
    134  N         -4.5610   37.1750   22.7570 N.3    50  ILE50      -0.1245
    135  CA        -3.7290   36.5380   21.7390 C.3    50  ILE50       0.1561
    136  C         -2.9680   35.3430   22.3340 C.2    50  ILE50       0.2260
    137  O         -3.0530   34.2140   21.8230 O.2    50  ILE50      -0.2867
    138  CB        -2.7790   37.5900   21.0890 C.3    50  ILE50       0.0252
    139  CG1       -3.6210   38.6450   20.3740 C.3    50  ILE50       0.0019
    140  CG2       -1.8080   36.9300   20.1280 C.3    50  ILE50       0.0019
    141  CD1       -2.8850   39.8750   19.9390 C.3    50  ILE50       0.0001
    142  N         -5.2400   32.2730   23.0910 N.3    53  GLN53      -0.1231
    143  CA        -5.6380   31.5680   21.8550 C.3    53  GLN53       0.1698
    144  C         -4.4750   30.7590   21.2710 C.2    53  GLN53       0.2592
    145  O         -4.6570   29.6270   20.8410 O.2    53  GLN53      -0.2718
    146  CB        -6.1990   32.5290   20.7990 C.3    53  GLN53       0.0381
    147  CG        -6.7350   31.7940   19.5570 C.3    53  GLN53       0.0905
    148  CD        -8.0380   32.3680   19.0120 C.2    53  GLN53       0.2608
    149  OE1       -8.9740   32.6480   19.7670 O.2    53  GLN53      -0.2717
    150  NE2       -8.1180   32.5070   17.6940 N.am   53  GLN53      -0.0878
    151  N         -3.2660   31.3120   21.3010 N.am   54  VAL54      -0.1980
    152  CA        -2.1190   30.5690   20.8130 C.3    54  VAL54       0.1595
    153  C         -1.9080   29.3110   21.6700 C.2    54  VAL54       0.2287
    154  O         -1.6930   28.2070   21.1550 O.2    54  VAL54      -0.2864
    155  CB        -0.8480   31.4780   20.7840 C.3    54  VAL54       0.0276
    156  CG1        0.4090   30.6590   20.4030 C.3    54  VAL54       0.0022
    157  CG2       -1.0580   32.6520   19.8040 C.3    54  VAL54       0.0022
    158  N         -8.2720   27.3210   18.8860 N.3    58  LYS58      -0.1231
    159  CA        -9.6650   27.7340   18.7300 C.3    58  LYS58       0.1693
    160  C        -10.2130   27.2080   17.3950 C.2    58  LYS58       0.2593
    161  O         -9.7980   27.6560   16.3250 O.2    58  LYS58      -0.2718
    162  CB        -9.7300   29.2730   18.7580 C.3    58  LYS58       0.0285
    163  CG       -11.1170   29.8760   18.8110 C.3    58  LYS58       0.0035
    164  CD       -11.7520   29.5990   20.1380 C.3    58  LYS58       0.0206
    165  CE       -13.2220   29.9490   20.1330 C.3    58  LYS58       0.1093
    166  NZ       -13.8420   29.5450   21.4330 N.3    58  LYS58      -0.1314
    167  N        -11.1170   26.2390   17.4680 N.am   59  GLY59      -0.1942
    168  CA       -11.7020   25.6730   16.2700 C.3    59  GLY59       0.2014
    169  C        -10.6680   25.0050   15.3880 C.2    59  GLY59       0.2639
    170  O        -10.0370   24.0170   15.7850 O.2    59  GLY59      -0.2714
    171  N        -10.4840   25.5570   14.1910 N.am   60  ALA60      -0.1963
    172  CA        -9.5240   25.0020   13.2360 C.3    60  ALA60       0.1728
    173  C         -8.0910   25.4400   13.5460 C.2    60  ALA60       0.2616
    174  O         -7.1300   24.9220   12.9530 O.2    60  ALA60      -0.2715
    175  CB        -9.9130   25.3470   11.7780 C.3    60  ALA60       0.0334
    176  N         -7.9430   26.4250   14.4310 N.am   61  MET61      -0.1964
    177  CA        -6.6010   26.8240   14.8200 C.3    61  MET61       0.1722
    178  C         -6.0840   25.8920   15.8990 C.2    61  MET61       0.2458
    179  O         -6.7480   25.7050   16.9340 O.2    61  MET61      -0.2730
    180  CB        -6.5330   28.2230   15.3850 C.3    61  MET61       0.0427
    181  CG        -5.0850   28.5080   15.7730 C.3    61  MET61       0.0599
    182  SD        -4.8320   30.1640   16.0330 S.3    61  MET61      -0.1393
    183  CE        -3.5320   30.1440   17.2890 C.3    61  MET61       0.0692
    184  N         -4.8930   25.3060   15.6790 N.am   62  PRO62      -0.2727
    185  CA        -4.3050   24.3930   16.6650 C.3    62  PRO62       0.1402
    186  C         -3.8010   25.0780   17.9410 C.2    62  PRO62       0.2269
    187  O         -3.7300   26.3080   18.0290 O.2    62  PRO62      -0.2865
    188  CB        -3.1840   23.6940   15.8730 C.3    62  PRO62       0.0296
    189  CG        -2.8270   24.6760   14.7970 C.3    62  PRO62       0.0237
    190  CD        -4.1520   25.2700   14.4050 C.3    62  PRO62       0.0939
    191  N         -0.8860   25.6000   20.7370 N.3    64  TRP64      -0.1241
    192  CA         0.5600   25.6130   20.6810 C.3    64  TRP64       0.1605
    193  C          1.2910   25.2580   21.9580 C.2    64  TRP64       0.2264
    194  O          2.5070   25.0940   21.9480 O.2    64  TRP64      -0.2867
    195  CB         1.0130   26.9310   20.0800 C.3    64  TRP64       0.0550
    196  CG         0.4810   27.0530   18.6720 C.ar   64  TRP64       0.0003
    197  CD1       -0.6750   27.6660   18.2710 C.ar   64  TRP64       0.0946
    198  CD2        1.0330   26.4290   17.4970 C.ar   64  TRP64       0.0152
    199  NE1       -0.8850   27.4490   16.9200 N.ar   64  TRP64      -0.2442
    200  CE2        0.1460   26.6950   16.4240 C.ar   64  TRP64       0.0810
    201  CE3        2.1920   25.6660   17.2500 C.ar   64  TRP64       0.0012
    202  CZ2        0.3800   26.2260   15.1300 C.ar   64  TRP64       0.0191
    203  CZ3        2.4290   25.1970   15.9530 C.ar   64  TRP64       0.0001
    204  CH2        1.5280   25.4780   14.9130 C.ar   64  TRP64       0.0015
    205  N          5.3350   25.0660   21.5990 N.3    68  LEU68      -0.1245
    206  CA         6.1710   26.2370   21.7510 C.3    68  LEU68       0.1561
    207  C          6.4150   26.3890   23.2590 C.2    68  LEU68       0.2260
    208  O          5.7000   25.7830   24.0730 O.2    68  LEU68      -0.2867
    209  CB         5.4430   27.4660   21.2150 C.3    68  LEU68       0.0270
    210  CG         5.0440   27.2980   19.7440 C.3    68  LEU68       0.0019
    211  CD1        4.3070   28.5210   19.2510 C.3    68  LEU68       0.0001
    212  CD2        6.2990   27.0890   18.9210 C.3    68  LEU68       0.0001
    213  N          5.7900   35.4910   20.0180 N.3    76  VAL76      -0.1245
    214  CA         4.9130   35.4680   18.8240 C.3    76  VAL76       0.1561
    215  C          3.6560   36.2710   19.0770 C.2    76  VAL76       0.2260
    216  O          3.1890   36.9790   18.1950 O.2    76  VAL76      -0.2867
    217  CB         4.5730   34.0240   18.2850 C.3    76  VAL76       0.0252
    218  CG1        3.5180   33.3500   19.1180 C.3    76  VAL76       0.0019
    219  CG2        4.1090   34.1090   16.8240 C.3    76  VAL76       0.0019
    220  N          2.6140   39.5130   16.7820 N.3    80  VAL80      -0.1245
    221  CA         1.2780   39.5990   16.1960 C.3    80  VAL80       0.1561
    222  C          0.5950   40.8710   16.6830 C.2    80  VAL80       0.2260
    223  O          0.0090   41.6180   15.8920 O.2    80  VAL80      -0.2867
    224  CB         0.4170   38.3600   16.5660 C.3    80  VAL80       0.0252
    225  CG1       -1.0600   38.6010   16.2470 C.3    80  VAL80       0.0019
    226  CG2        0.9160   37.1450   15.8040 C.3    80  VAL80       0.0019
@<TRIPOS>BOND
     1    57    56    2
     2    36    35    2
     3    65    64    2
     4    56    55    1
     5    62    63    1
     6    63    64    1
     7    63    66    1
     8    35    34    1
     9    35    38   am
    10    64    69   am
    11    34    37    1
    12    34    33    1
    13    54    55    1
    14    55    58    1
    15    71    70    1
    16    71    72    2
    17    41    40    2
    18    69    70    1
    19    39    38    1
    20    39    40    1
    21    39    42    1
    22    68    66    1
    23    93    91    1
    24    70    73    1
    25    46    47    2
    26    46    45    1
    27    40    44   am
    28    66    67    1
    29    44    45    1
    30    58    59    1
    31    45    48    1
    32    60    59    2
    33    42    43    1
    34    76    74    1
    35    91    92    1
    36    91    88    1
    37    59    61   am
    38    73    75    1
    39    73    74    1
    40    77    78    1
    41    30    29    2
    42    48    49    1
    43    88    87    1
    44    88    89    1
    45    17    18   ar
    46    17    15   ar
    47    87    79   am
    48    29    28    1
    49    50    49   ar
    50    50    52   ar
    51    49    51   ar
    52    79    78    1
    53    79    80    2
    54    18    16   ar
    55    78    81    1
    56    15    13   ar
    57    94    89   am
    58    94    95    1
    59    89    90    2
    60    52    53   ar
    61    11    10    2
    62    84    82   ar
    63    84    86   ar
    64    81    82    1
    65    51    53   ar
    66   175   172    1
    67    28    27    1
    68    28    31    1
    69   106   103    1
    70   125   124   ar
    71   125   123   ar
    72   124   122   ar
    73    10     9    1
    74    82    83   ar
    75    98    95    1
    76    98    99    1
    77    27    21   am
    78    95    96    1
    79    99   100    1
    80    99   101    1
    81    16    14   ar
    82    22    21    2
    83    96    97    2
    84    13    14   ar
    85    13    12    1
    86    21    20    1
    87    86    85   ar
    88    19    20    1
    89    31    32    1
    90    20    23    1
    91   102   103    1
    92   103   104    1
    93   174   173    2
    94   123   121   ar
    95   122   120   ar
    96    12     9    1
    97   172   173    1
    98   172   171    1
    99    83    85   ar
   100     9     8    1
   101   173   176   am
   102   171   169   am
   103   121   120   ar
   104   120   119    1
   105     4     3    2
   106     8     3   am
   107   104   105    2
   108   104   107   am
   109   190   189    1
   110   190   184    1
   111    23    24    1
   112   176   177    1
   113     3     2    1
   114   189   188    1
   115   177   180    1
   116   177   178    1
   117   204   202   ar
   118   204   203   ar
   119    26    24   am
   120   107   108    1
   121    24    25    2
   122     1     2    1
   123   202   200   ar
   124   180   181    1
   125   169   170    2
   126   169   168    1
   127   119   116    1
   128     2     5    1
   129   184   178   am
   130   184   185    1
   131   114   113    1
   132   181   182    1
   133   226   224    1
   134   188   185    1
   135   223   222    2
   136   178   179    2
   137   203   201   ar
   138   182   183    1
   139   112   113    1
   140   112   111    1
   141   221   224    1
   142   221   222    1
   143   221   220    1
   144   225   224    1
   145   168   167    1
   146   108   111    1
   147   108   109    1
   148   161   160    2
   149   200   199   ar
   150   200   198   ar
   151   115   116    1
   152   185   186    1
   153   116   117    1
   154   219   217    1
   155   199   197   ar
   156     5     7    1
   157     5     6    1
   158   201   198   ar
   159   109   110    2
   160   160   167   am
   161   160   159    1
   162   198   196   ar
   163   150   148   am
   164   117   118    2
   165   117   126   am
   166   186   187    2
   167   216   215    2
   168   197   196   ar
   169   217   214    1
   170   217   218    1
   171   126   127    1
   172   196   195    1
   173   159   162    1
   174   159   158    1
   175   162   163    1
   176   163   164    1
   177   214   215    1
   178   214   213    1
   179   212   210    1
   180   148   147    1
   181   148   149    2
   182   211   210    1
   183   127   130    1
   184   127   128    1
   185   130   131    1
   186   147   146    1
   187   210   209    1
   188   157   155    1
   189   141   139    1
   190   195   192    1
   191   140   138    1
   192   165   164    1
   193   165   166    1
   194   133   131    1
   195   132   131    1
   196   139   138    1
   197   156   155    1
   198   192   191    1
   199   192   193    1
   200   128   129    2
   201   155   152    1
   202   146   143    1
   203   152   151    1
   204   152   153    1
   205   145   144    2
   206   138   135    1
   207   154   153    2
   208   209   206    1
   209   144   151   am
   210   144   143    1
   211   205   206    1
   212   135   136    1
   213   135   134    1
   214   206   207    1
   215   137   136    2
   216   143   142    1
   217   194   193    2
   218   207   208    2
