@<TRIPOS>MOLECULE
tmp/1c6sA00.pdb
 212 202 0 0 0
SMALL
GASTEIGER

@<TRIPOS>ATOM
      1  N         27.4840   -3.1800  -20.3790 N.3    10  PHE10      -0.1241
      2  CA        28.3150   -4.4020  -20.2920 C.3    10  PHE10       0.1605
      3  C         27.7880   -5.2970  -19.1690 C.2    10  PHE10       0.2264
      4  O         27.9420   -6.5010  -19.1920 O.2    10  PHE10      -0.2867
      5  CB        29.7640   -4.0200  -19.9960 C.3    10  PHE10       0.0534
      6  CG        30.5530   -5.2850  -19.7990 C.ar   10  PHE10      -0.0203
      7  CD1       30.4430   -5.9660  -18.5920 C.ar   10  PHE10      -0.0042
      8  CD2       31.3640   -5.7950  -20.8230 C.ar   10  PHE10      -0.0042
      9  CE1       31.1410   -7.1520  -18.3940 C.ar   10  PHE10      -0.0003
     10  CE2       32.0630   -6.9910  -20.6220 C.ar   10  PHE10      -0.0003
     11  CZ        31.9510   -7.6700  -19.4070 C.ar   10  PHE10      -0.0000
     12  N         24.3910   -6.8440  -20.9480 N.3    13  ASN13      -0.1225
     13  CA        24.3790   -7.4150  -22.3260 C.3    13  ASN13       0.1785
     14  C         25.7340   -8.0620  -22.6090 C.2    13  ASN13       0.2597
     15  O         25.8280   -9.2350  -22.9090 O.2    13  ASN13      -0.2718
     16  CB        24.1340   -6.2980  -23.3440 C.3    13  ASN13       0.1169
     17  CG        23.1570   -5.2780  -22.7590 C.2    13  ASN13       0.2627
     18  OD1       21.9840   -5.5560  -22.6060 O.2    13  ASN13      -0.2716
     19  ND2       23.5950   -4.0960  -22.4310 N.am   13  ASN13      -0.0877
     20  N         26.7850   -7.2980  -22.5100 N.am   14  CYS14      -0.1970
     21  CA        28.1420   -7.8490  -22.7650 C.3    14  CYS14       0.1712
     22  C         28.4800   -8.8850  -21.6890 C.2    14  CYS14       0.2296
     23  O         29.2920   -9.7660  -21.8900 O.2    14  CYS14      -0.2864
     24  CB        29.1570   -6.7080  -22.7070 C.3    14  CYS14       0.0983
     25  SG        28.5310   -5.2880  -23.6430 S.3    14  CYS14      -0.0798
     26  N         26.7260  -11.2920  -20.6450 N.3    16  ALA16      -0.1231
     27  CA        26.2890  -12.6550  -21.0680 C.3    16  ALA16       0.1694
     28  C         27.4010  -13.3550  -21.8560 C.2    16  ALA16       0.2592
     29  O         27.3370  -14.5410  -22.1070 O.2    16  ALA16      -0.2718
     30  CB        25.0410  -12.5380  -21.9460 C.3    16  ALA16       0.0304
     31  N         28.4160  -12.6380  -22.2520 N.am   17  CYS17      -0.1956
     32  CA        29.5180  -13.2790  -23.0260 C.3    17  CYS17       0.1843
     33  C         30.8690  -12.7480  -22.5490 C.2    17  CYS17       0.2625
     34  O         31.8390  -12.7460  -23.2800 O.2    17  CYS17      -0.2714
     35  CB        29.3550  -12.9560  -24.5030 C.3    17  CYS17       0.0997
     36  SG        29.3690  -14.4890  -25.4800 S.3    17  CYS17      -0.0797
     37  N         30.9410  -12.2980  -21.3320 N.am   18  HIS18      -0.1973
     38  CA        32.2300  -11.7660  -20.8130 C.3    18  HIS18       0.1656
     39  C         32.2210  -11.8450  -19.2860 C.2    18  HIS18       0.2291
     40  O         32.9240  -12.6350  -18.6900 O.2    18  HIS18      -0.2864
     41  CB        32.3850  -10.3100  -21.2570 C.3    18  HIS18       0.0771
     42  CG        32.7070  -10.2600  -22.7130 C.ar   18  HIS18       0.0820
     43  ND1       33.9990  -10.3940  -23.1610 N.ar   18  HIS18      -0.2267
     44  CD2       31.9310  -10.0980  -23.8290 C.ar   18  HIS18       0.1154
     45  CE1       33.9740  -10.3190  -24.4950 C.ar   18  HIS18       0.1986
     46  NE2       32.7360  -10.1380  -24.9620 N.ar   18  HIS18      -0.2212
     47  N         36.4380  -13.3490  -21.6370 N.3    23  ASN23      -0.1240
     48  CA        35.6070  -13.8850  -22.7500 C.3    23  ASN23       0.1653
     49  C         34.9150  -15.1690  -22.2920 C.2    23  ASN23       0.2266
     50  O         35.4890  -15.9790  -21.5900 O.2    23  ASN23      -0.2867
     51  CB        36.4990  -14.1890  -23.9560 C.3    23  ASN23       0.1155
     52  CG        35.8350  -13.6580  -25.2270 C.2    23  ASN23       0.2627
     53  OD1       35.3340  -14.4190  -26.0300 O.2    23  ASN23      -0.2716
     54  ND2       35.8110  -12.3710  -25.4470 N.am   23  ASN23      -0.0877
     55  N         33.3240  -17.1550  -24.5980 N.3    25  VAL25      -0.1231
     56  CA        33.2050  -18.0330  -25.7980 C.3    25  VAL25       0.1692
     57  C         34.5990  -18.4550  -26.2680 C.2    25  VAL25       0.2591
     58  O         34.8680  -19.6230  -26.4700 O.2    25  VAL25      -0.2718
     59  CB        32.5020  -17.2640  -26.9200 C.3    25  VAL25       0.0266
     60  CG1       32.4250  -18.1440  -28.1690 C.3    25  VAL25       0.0020
     61  CG2       31.0870  -16.8860  -26.4730 C.3    25  VAL25       0.0020
     62  N         35.4850  -17.5140  -26.4500 N.am   26  MET26      -0.1979
     63  CA        36.8590  -17.8630  -26.9130 C.3    26  MET26       0.1605
     64  C         37.7650  -18.1270  -25.7080 C.2    26  MET26       0.2287
     65  O         37.3660  -17.9740  -24.5710 O.2    26  MET26      -0.2864
     66  CB        37.4320  -16.7010  -27.7270 C.3    26  MET26       0.0413
     67  CG        37.1340  -16.9240  -29.2110 C.3    26  MET26       0.0598
     68  SD        38.4210  -17.9690  -29.9370 S.3    26  MET26      -0.1393
     69  CE        38.0520  -17.6100  -31.6730 C.3    26  MET26       0.0692
     70  N         40.7800  -14.0330  -26.6250 N.3    29  LYS29      -0.1231
     71  CA        40.1970  -12.6840  -26.8630 C.3    29  LYS29       0.1693
     72  C         39.3620  -12.2970  -25.6430 C.2    29  LYS29       0.2593
     73  O         38.2240  -12.7020  -25.5030 O.2    29  LYS29      -0.2718
     74  CB        39.3080  -12.7310  -28.1070 C.3    29  LYS29       0.0285
     75  CG        39.8950  -11.8320  -29.1970 C.3    29  LYS29       0.0035
     76  CD        39.3270  -12.2500  -30.5540 C.3    29  LYS29       0.0206
     77  CE        40.3330  -13.1500  -31.2720 C.3    29  LYS29       0.1093
     78  NZ        39.6110  -14.2730  -31.9350 N.3    29  LYS29      -0.1314
     79  N         39.9230  -11.5370  -24.7420 N.am   30  THR30      -0.1939
     80  CA        39.1680  -11.1520  -23.5170 C.3    30  THR30       0.2028
     81  C         38.8400   -9.6530  -23.5400 C.2    30  THR30       0.2642
     82  O         38.9700   -8.9900  -24.5500 O.2    30  THR30      -0.2714
     83  CB        40.0210  -11.4870  -22.2880 C.3    30  THR30       0.1808
     84  OG1       39.1870  -11.5750  -21.1410 O.3    30  THR30      -0.2208
     85  CG2       41.0770  -10.4020  -22.0720 C.3    30  THR30       0.0379
     86  N         38.4080   -9.1230  -22.4270 N.am   31  LEU31      -0.1977
     87  CA        38.0590   -7.6740  -22.3650 C.3    31  LEU31       0.1596
     88  C         39.1220   -6.9240  -21.5730 C.2    31  LEU31       0.2287
     89  O         39.3250   -5.7390  -21.7540 O.2    31  LEU31      -0.2864
     90  CB        36.7080   -7.5100  -21.6560 C.3    31  LEU31       0.0297
     91  CG        35.5260   -7.5590  -22.6550 C.3    31  LEU31       0.0022
     92  CD1       34.9720   -6.1520  -22.8780 C.3    31  LEU31       0.0001
     93  CD2       35.9500   -8.1470  -24.0100 C.3    31  LEU31       0.0001
     94  N         42.9950   -8.9250  -25.7370 N.3    36  LEU36      -0.1245
     95  CA        42.3120   -8.0230  -26.7070 C.3    36  LEU36       0.1561
     96  C         43.3330   -7.0310  -27.2620 C.2    36  LEU36       0.2260
     97  O         43.1690   -6.4880  -28.3370 O.2    36  LEU36      -0.2867
     98  CB        41.1770   -7.2650  -26.0170 C.3    36  LEU36       0.0270
     99  CG        41.7290   -6.5060  -24.8190 C.3    36  LEU36       0.0019
    100  CD1       40.9160   -5.2310  -24.6100 C.3    36  LEU36       0.0001
    101  CD2       41.6190   -7.3810  -23.5810 C.3    36  LEU36       0.0001
    102  N         46.9870   -8.9890  -29.6020 N.3    39  PHE39      -0.1241
    103  CA        47.0310   -8.9850  -31.0780 C.3    39  PHE39       0.1605
    104  C         46.8570   -7.5540  -31.5840 C.2    39  PHE39       0.2264
    105  O         47.4190   -7.1690  -32.5910 O.2    39  PHE39      -0.2867
    106  CB        45.9480   -9.8970  -31.6540 C.3    39  PHE39       0.0534
    107  CG        44.7590  -10.0060  -30.7260 C.ar   39  PHE39      -0.0203
    108  CD1       44.0000   -8.8760  -30.4100 C.ar   39  PHE39      -0.0042
    109  CD2       44.4080  -11.2540  -30.1910 C.ar   39  PHE39      -0.0042
    110  CE1       42.8950   -8.9910  -29.5620 C.ar   39  PHE39      -0.0003
    111  CE2       43.3030  -11.3670  -29.3420 C.ar   39  PHE39      -0.0003
    112  CZ        42.5470  -10.2360  -29.0280 C.ar   39  PHE39      -0.0000
    113  N         43.8400   -4.3150  -30.6270 N.3    41  MET41      -0.1245
    114  CA        42.4050   -3.9130  -30.8060 C.3    41  MET41       0.1570
    115  C         41.7450   -3.6260  -29.4490 C.2    41  MET41       0.2261
    116  O         40.5540   -3.8020  -29.2820 O.2    41  MET41      -0.2867
    117  CB        41.6250   -5.0230  -31.5080 C.3    41  MET41       0.0387
    118  CG        41.9860   -6.3730  -30.8930 C.3    41  MET41       0.0595
    119  SD        42.0170   -7.6280  -32.1990 S.3    41  MET41      -0.1393
    120  CE        40.5670   -7.0520  -33.1160 C.3    41  MET41       0.0692
    121  N         38.5090    0.1750  -31.7090 N.3    46  ALA46      -0.1231
    122  CA        38.6700   -1.2970  -31.9150 C.3    46  ALA46       0.1694
    123  C         37.4090   -2.0350  -31.4660 C.2    46  ALA46       0.2591
    124  O         36.6100   -2.4740  -32.2710 O.2    46  ALA46      -0.2718
    125  CB        39.8700   -1.7920  -31.1070 C.3    46  ALA46       0.0304
    126  N         37.2360   -2.1850  -30.1910 N.am   47  ILE47      -0.1980
    127  CA        36.0440   -2.8980  -29.6670 C.3    47  ILE47       0.1595
    128  C         34.7710   -2.1840  -30.1100 C.2    47  ILE47       0.2287
    129  O         33.7000   -2.7550  -30.1440 O.2    47  ILE47      -0.2864
    130  CB        36.1380   -2.8930  -28.1560 C.3    47  ILE47       0.0276
    131  CG1       34.9580   -3.6320  -27.5420 C.3    47  ILE47       0.0022
    132  CG2       36.1200   -1.4590  -27.6470 C.3    47  ILE47       0.0022
    133  CD1       35.0570   -3.4960  -26.0240 C.3    47  ILE47       0.0001
    134  N         33.9360   -3.9010  -32.9070 N.3    50  GLN50      -0.1231
    135  CA        33.7090   -5.3160  -32.5280 C.3    50  GLN50       0.1698
    136  C         32.4340   -5.3550  -31.6680 C.2    50  GLN50       0.2592
    137  O         31.9740   -6.3980  -31.2480 O.2    50  GLN50      -0.2718
    138  CB        34.9590   -5.8230  -31.7800 C.3    50  GLN50       0.0381
    139  CG        34.6140   -6.8040  -30.6580 C.3    50  GLN50       0.0905
    140  CD        34.5320   -8.2170  -31.2390 C.2    50  GLN50       0.2608
    141  OE1       33.5660   -8.9200  -31.0310 O.2    50  GLN50      -0.2717
    142  NE2       35.5180   -8.6650  -31.9670 N.am   50  GLN50      -0.0878
    143  N         31.8470   -4.2010  -31.4260 N.am   51  VAL51      -0.1980
    144  CA        30.5980   -4.1260  -30.6160 C.3    51  VAL51       0.1595
    145  C         29.4130   -3.7590  -31.5090 C.2    51  VAL51       0.2287
    146  O         28.3240   -4.2660  -31.3520 O.2    51  VAL51      -0.2864
    147  CB        30.7470   -3.0260  -29.5710 C.3    51  VAL51       0.0276
    148  CG1       29.4110   -2.8170  -28.8590 C.3    51  VAL51       0.0022
    149  CG2       31.8120   -3.4230  -28.5500 C.3    51  VAL51       0.0022
    150  N         31.7010   -9.6750  -33.8320 N.3    55  LYS55      -0.1231
    151  CA        32.8340  -10.1160  -34.6890 C.3    55  LYS55       0.1693
    152  C         33.0770  -11.6070  -34.4900 C.2    55  LYS55       0.2592
    153  O         33.2300  -12.0780  -33.3830 O.2    55  LYS55      -0.2718
    154  CB        34.0920   -9.3230  -34.3520 C.3    55  LYS55       0.0285
    155  CG        34.4040   -8.4000  -35.5330 C.3    55  LYS55       0.0035
    156  CD        35.0860   -7.1300  -35.0330 C.3    55  LYS55       0.0206
    157  CE        36.2820   -6.8080  -35.9340 C.3    55  LYS55       0.1093
    158  NZ        37.3790   -6.2190  -35.1140 N.3    55  LYS55      -0.1314
    159  N         33.0960  -12.3490  -35.5650 N.am   56  ASN56      -0.1960
    160  CA        33.3100  -13.8190  -35.4730 C.3    56  ASN56       0.1819
    161  C         32.0900  -14.4750  -34.8210 C.2    56  ASN56       0.2621
    162  O         31.2280  -15.0020  -35.4960 O.2    56  ASN56      -0.2715
    163  CB        34.5670  -14.1180  -34.6530 C.3    56  ASN56       0.1195
    164  CG        35.7830  -13.5030  -35.3510 C.2    56  ASN56       0.2630
    165  OD1       36.4200  -14.1450  -36.1610 O.2    56  ASN56      -0.2716
    166  ND2       36.1310  -12.2760  -35.0730 N.am   56  ASN56      -0.0877
    167  N         32.0040  -14.4550  -33.5170 N.am   57  ALA57      -0.1963
    168  CA        30.8330  -15.0870  -32.8470 C.3    57  ALA57       0.1728
    169  C         30.1800  -14.1070  -31.8670 C.2    57  ALA57       0.2616
    170  O         29.3510  -14.4880  -31.0670 O.2    57  ALA57      -0.2715
    171  CB        31.2950  -16.3300  -32.0820 C.3    57  ALA57       0.0334
    172  N         30.5350  -12.8490  -31.9120 N.am   58  MET58      -0.1964
    173  CA        29.9040  -11.8850  -30.9650 C.3    58  MET58       0.1722
    174  C         28.7130  -11.1950  -31.6490 C.2    58  MET58       0.2458
    175  O         28.7850  -10.8490  -32.8100 O.2    58  MET58      -0.2730
    176  CB        30.9360  -10.8440  -30.5100 C.3    58  MET58       0.0427
    177  CG        30.2300   -9.6240  -29.9010 C.3    58  MET58       0.0599
    178  SD        31.4540   -8.3860  -29.4080 S.3    58  MET58      -0.1393
    179  CE        30.2750   -7.1240  -28.8730 C.3    58  MET58       0.0692
    180  N         27.6460  -11.0300  -30.9050 N.am   59  PRO59      -0.2727
    181  CA        26.4090  -10.3920  -31.4030 C.3    59  PRO59       0.1402
    182  C         26.5270   -8.8730  -31.5640 C.2    59  PRO59       0.2269
    183  O         26.6950   -8.1460  -30.6070 O.2    59  PRO59      -0.2865
    184  CB        25.3750  -10.7270  -30.3260 C.3    59  PRO59       0.0296
    185  CG        26.1630  -11.0640  -29.0440 C.3    59  PRO59       0.0237
    186  CD        27.5690  -11.4760  -29.4950 C.3    59  PRO59       0.0939
    187  N         25.8920   -4.8990  -31.8350 N.3    61  PHE61      -0.1241
    188  CA        25.1890   -4.0910  -30.8240 C.3    61  PHE61       0.1605
    189  C         24.9240   -2.7050  -31.4090 C.2    61  PHE61       0.2264
    190  O         24.6060   -1.7680  -30.7050 O.2    61  PHE61      -0.2867
    191  CB        26.0460   -3.9720  -29.5650 C.3    61  PHE61       0.0534
    192  CG        25.9350   -5.2500  -28.7730 C.ar   61  PHE61      -0.0203
    193  CD1       24.8480   -5.4420  -27.9200 C.ar   61  PHE61      -0.0042
    194  CD2       26.9180   -6.2380  -28.8910 C.ar   61  PHE61      -0.0042
    195  CE1       24.7400   -6.6260  -27.1800 C.ar   61  PHE61      -0.0003
    196  CE2       26.8140   -7.4210  -28.1520 C.ar   61  PHE61      -0.0003
    197  CZ        25.7250   -7.6160  -27.2960 C.ar   61  PHE61      -0.0000
    198  N         22.1500   -2.5260  -27.8730 N.3    65  LEU65      -0.1245
    199  CA        22.2680   -1.7600  -26.6050 C.3    65  LEU65       0.1561
    200  C         21.4770   -0.4680  -26.7790 C.2    65  LEU65       0.2260
    201  O         20.4170   -0.4500  -27.3730 O.2    65  LEU65      -0.2867
    202  CB        23.7340   -1.4320  -26.3260 C.3    65  LEU65       0.0270
    203  CG        24.5880   -2.6700  -26.5610 C.3    65  LEU65       0.0019
    204  CD1       26.0380   -2.3580  -26.2000 C.3    65  LEU65       0.0001
    205  CD2       24.0810   -3.8160  -25.6820 C.3    65  LEU65       0.0001
    206  N         30.3530    1.5910  -23.7270 N.3    73  VAL73      -0.1245
    207  CA        30.6950    0.1870  -23.3410 C.3    73  VAL73       0.1561
    208  C         32.1120   -0.1480  -23.8400 C.2    73  VAL73       0.2260
    209  O         32.8100   -0.9690  -23.2740 O.2    73  VAL73      -0.2867
    210  CB        29.6720   -0.7740  -23.9720 C.3    73  VAL73       0.0252
    211  CG1       30.0840   -1.1300  -25.4060 C.3    73  VAL73       0.0019
    212  CG2       29.6010   -2.0520  -23.1450 C.3    73  VAL73       0.0019
@<TRIPOS>BOND
     1   165   164    2
     2   157   158    1
     3   157   156    1
     4   159   160    1
     5   159   152   am
     6   155   156    1
     7   155   154    1
     8   162   161    2
     9   160   161    1
    10   160   163    1
    11   164   166   am
    12   164   163    1
    13   161   167   am
    14   151   152    1
    15   151   154    1
    16   151   150    1
    17   152   153    2
    18   167   168    1
    19   120   119    1
    20   134   135    1
    21   168   171    1
    22   168   169    1
    23   175   174    2
    24   105   104    2
    25   135   138    1
    26   135   136    1
    27   124   123    2
    28   119   118    1
    29   142   140   am
    30    78    77    1
    31   122   121    1
    32   122   123    1
    33   122   125    1
    34   172   169   am
    35   172   173    1
    36   169   170    2
    37   187   188    1
    38   138   139    1
    39    69    68    1
    40   136   143   am
    41   136   137    2
    42   106   103    1
    43   106   107    1
    44   174   173    1
    45   174   180   am
    46   104   103    1
    47   182   181    1
    48   182   183    2
    49   145   146    2
    50   145   144    1
    51   117   118    1
    52   117   114    1
    53   123   126   am
    54   143   144    1
    55   189   188    1
    56   189   190    2
    57   181   180    1
    58   181   184    1
    59    77    76    1
    60   140   141    2
    61   140   139    1
    62   103   102    1
    63   173   176    1
    64   180   186    1
    65   188   191    1
    66   114   113    1
    67   114   115    1
    68   107   108   ar
    69   107   109   ar
    70   144   147    1
    71    76    75    1
    72   176   177    1
    73   108   110   ar
    74   184   185    1
    75   109   111   ar
    76   126   127    1
    77   129   128    2
    78   128   127    1
    79    68    67    1
    80   177   178    1
    81   127   130    1
    82   147   148    1
    83   147   149    1
    84   191   192    1
    85   110   112   ar
    86   186   185    1
    87   115   116    2
    88   178   179    1
    89   111   112   ar
    90    67    66    1
    91    75    74    1
    92   194   192   ar
    93   194   196   ar
    94   192   193   ar
    95    97    96    2
    96    60    59    1
    97   130   132    1
    98   130   131    1
    99   196   197   ar
   100    74    71    1
   101   193   195   ar
   102   198   199    1
   103    66    63    1
   104   131   133    1
   105   201   200    2
   106   197   195   ar
   107    96    95    1
   108    59    61    1
   109    59    56    1
   110    63    62    1
   111    63    64    1
   112    71    70    1
   113    71    72    1
   114   200   199    1
   115    95    98    1
   116    95    94    1
   117   199   202    1
   118   203   202    1
   119   203   204    1
   120   203   205    1
   121    58    57    2
   122    62    57   am
   123    57    56    1
   124    53    52    2
   125    98    99    1
   126    56    55    1
   127    64    65    2
   128    72    73    2
   129    72    79   am
   130    36    35    1
   131    54    52   am
   132   211   210    1
   133    52    51    1
   134    46    45   ar
   135    46    44   ar
   136    99   100    1
   137    99   101    1
   138    79    80    1
   139    82    81    2
   140    35    32    1
   141    45    43   ar
   142    93    91    1
   143   210   207    1
   144   210   212    1
   145    51    48    1
   146   208   207    1
   147   208   209    2
   148    44    42   ar
   149   206   207    1
   150    25    24    1
   151    81    80    1
   152    81    86   am
   153    80    83    1
   154    16    17    1
   155    16    13    1
   156    34    33    2
   157    43    42   ar
   158    32    33    1
   159    32    31    1
   160    15    14    2
   161    92    91    1
   162    21    24    1
   163    21    20    1
   164    21    22    1
   165    17    18    2
   166    17    19   am
   167    48    49    1
   168    48    47    1
   169    42    41    1
   170    91    90    1
   171    14    20   am
   172    14    13    1
   173    33    37   am
   174    86    87    1
   175    87    90    1
   176    87    88    1
   177    13    12    1
   178    49    50    2
   179    83    85    1
   180    83    84    1
   181    31    28   am
   182    29    28    2
   183    30    27    1
   184    23    22    2
   185    28    27    1
   186    89    88    2
   187    37    38    1
   188    41    38    1
   189    27    26    1
   190     8    10   ar
   191     8     6   ar
   192    38    39    1
   193    10    11   ar
   194     1     2    1
   195     2     5    1
   196     2     3    1
   197     5     6    1
   198     6     7   ar
   199    11     9   ar
   200    39    40    2
   201     4     3    2
   202     7     9   ar
