@<TRIPOS>MOLECULE
tmp/1c70A00.pdb
 116 109 0 0 0
SMALL
GASTEIGER

@<TRIPOS>ATOM
      1  N         26.9910   24.1060    6.3000 N.3     8  ARG8       -0.1245
      2  CA        25.7280   24.7280    6.6720 C.3     8  ARG8        0.1563
      3  C         25.9250   26.1970    7.0760 C.2     8  ARG8        0.2260
      4  O         26.8430   26.4510    7.8700 O.2     8  ARG8       -0.2867
      5  CB        25.1140   23.9400    7.8390 C.3     8  ARG8        0.0307
      6  CG        24.1530   22.8710    7.3040 C.3     8  ARG8        0.0489
      7  CD        24.1310   21.4950    7.9830 C.3     8  ARG8        0.2205
      8  NE        23.4010   21.4710    9.2270 N.pl3   8  ARG8       -0.0865
      9  CZ        22.3420   20.6810    9.4170 C.cat   8  ARG8        0.5346
     10  NH1       21.7260   20.7080   10.5970 N.pl3   8  ARG8        0.1354
     11  NH2       21.8590   19.8950    8.4640 N.pl3   8  ARG8        0.1354
     12  N         20.9500   28.9510   11.7710 N.3    23  LEU23      -0.1245
     13  CA        21.1020   28.7330   10.3560 C.3    23  LEU23       0.1561
     14  C         20.4460   29.7890    9.4730 C.2    23  LEU23       0.2260
     15  O         19.2410   30.0040    9.6060 O.2    23  LEU23      -0.2867
     16  CB        20.5370   27.3450   10.1340 C.3    23  LEU23       0.0270
     17  CG        20.4400   26.6830    8.7910 C.3    23  LEU23       0.0019
     18  CD1       21.7770   26.5780    8.0980 C.3    23  LEU23       0.0001
     19  CD2       19.9140   25.2850    9.0480 C.3    23  LEU23       0.0001
     20  N         18.5970   30.6240    6.5800 N.3    25  ASP25      -0.1239
     21  CA        17.8080   29.7980    5.7180 C.3    25  ASP25       0.1674
     22  C         16.9710   30.5840    4.7470 C.2    25  ASP25       0.2266
     23  O         15.9380   31.1120    5.1210 O.2    25  ASP25      -0.2867
     24  CB        16.9550   28.9490    6.6420 C.3    25  ASP25       0.1410
     25  CG        16.3290   27.6820    6.0880 C.2    25  ASP25       0.3668
     26  OD1       16.1000   26.7930    6.9070 O.co2  25  ASP25      -0.2456
     27  OD2       16.0610   27.5870    4.8840 O.co2  25  ASP25      -0.2456
     28  N         15.1530   29.3000    2.4970 N.3    27  GLY27      -0.1210
     29  CA        13.9420   28.5460    2.1700 C.3    27  GLY27       0.1956
     30  C         12.8240   28.6910    3.1880 C.2    27  GLY27       0.2612
     31  O         11.6930   28.2410    2.9440 O.2    27  GLY27      -0.2717
     32  N         13.1360   29.2970    4.3330 N.am   28  ALA28      -0.1965
     33  CA        12.1680   29.4580    5.4020 C.3    28  ALA28       0.1728
     34  C         11.5410   30.8440    5.3880 C.2    28  ALA28       0.2616
     35  O         12.2290   31.8700    5.4500 O.2    28  ALA28      -0.2715
     36  CB        12.8190   29.3160    6.7560 C.3    28  ALA28       0.0334
     37  N         10.2230   30.8610    5.3150 N.am   29  ASP29      -0.1957
     38  CA         9.4390   32.0610    5.4120 C.3    29  ASP29       0.1840
     39  C          9.5400   32.6430    6.8130 C.2    29  ASP29       0.2622
     40  O          9.7730   33.8340    6.9720 O.2    29  ASP29      -0.2715
     41  CB         7.9850   31.7410    5.1280 C.3    29  ASP29       0.1450
     42  CG         7.6190   31.1740    3.7630 C.2    29  ASP29       0.3671
     43  OD1        6.4590   30.7970    3.5930 O.co2  29  ASP29      -0.2456
     44  OD2        8.4610   31.1210    2.8650 O.co2  29  ASP29      -0.2456
     45  N          9.3850   31.8120    7.8470 N.am   30  ASP30      -0.1971
     46  CA         9.3450   32.2280    9.2410 C.3    30  ASP30       0.1709
     47  C         10.6540   31.9670    9.9400 C.2    30  ASP30       0.2293
     48  O         11.4850   31.2330    9.4060 O.2    30  ASP30      -0.2864
     49  CB         8.2860   31.4590    9.9890 C.3    30  ASP30       0.1436
     50  CG         6.8540   31.7290    9.5800 C.2    30  ASP30       0.3671
     51  OD1        6.4440   32.8920    9.6250 O.co2  30  ASP30      -0.2456
     52  OD2        6.1530   30.7740    9.2460 O.co2  30  ASP30      -0.2456
     53  N         12.1540   30.2620   13.3590 N.3    32  VAL32      -0.1245
     54  CA        11.7770   29.2290   14.3260 C.3    32  VAL32       0.1561
     55  C         12.9690   28.9430   15.2390 C.2    32  VAL32       0.2260
     56  O         14.0720   28.6430   14.7690 O.2    32  VAL32      -0.2867
     57  CB        11.3710   27.8900   13.6360 C.3    32  VAL32       0.0252
     58  CG1       10.4600   27.2290   14.6480 C.3    32  VAL32       0.0019
     59  CG2       10.7150   28.0250   12.2420 C.3    32  VAL32       0.0019
     60  N          3.1780   24.9410   11.8820 N.3    47  ILE47      -0.1231
     61  CA         4.0140   25.2290   10.7080 C.3    47  ILE47       0.1692
     62  C          4.4910   23.8790   10.2030 C.2    47  ILE47       0.2593
     63  O          4.7830   22.9990   11.0180 O.2    47  ILE47      -0.2718
     64  CB         5.2880   26.0610   11.0030 C.3    47  ILE47       0.0266
     65  CG1        5.8580   25.7140   12.3700 C.3    47  ILE47       0.0019
     66  CG2        4.9500   27.5280   10.8370 C.3    47  ILE47       0.0020
     67  CD1        7.3580   26.0390   12.5040 C.3    47  ILE47       0.0001
     68  N          4.5430   23.6540    8.8960 N.am   48  GLY48      -0.1942
     69  CA         4.9740   22.3720    8.3680 C.3    48  GLY48       0.2014
     70  C          6.2990   22.4100    7.6380 C.2    48  GLY48       0.2639
     71  O          6.6050   23.3980    6.9770 O.2    48  GLY48      -0.2714
     72  N          7.0550   21.3260    7.7260 N.am   49  GLY49      -0.1939
     73  CA         8.3220   21.2160    7.0470 C.3    49  GLY49       0.2014
     74  C          8.4040   19.8740    6.3390 C.2    49  GLY49       0.2639
     75  O          7.3790   19.3100    5.9370 O.2    49  GLY49      -0.2714
     76  N          9.6400   19.3590    6.2760 N.am   50  ILE50      -0.1963
     77  CA        10.0120   18.1180    5.6200 C.3    50  ILE50       0.1727
     78  C          9.2770   16.9140    6.2010 C.2    50  ILE50       0.2616
     79  O          8.7210   16.1280    5.4270 O.2    50  ILE50      -0.2715
     80  CB        11.5790   17.9910    5.7180 C.3    50  ILE50       0.0290
     81  CG1       12.2030   18.5100    4.4340 C.3    50  ILE50       0.0022
     82  CG2       12.0730   16.5570    5.7670 C.3    50  ILE50       0.0023
     83  CD1       12.0900   20.0030    4.0970 C.3    50  ILE50       0.0001
     84  N          9.2440   16.7350    7.5210 N.am   51  GLY51      -0.1955
     85  CA         8.4970   15.6300    8.0600 C.3    51  GLY51       0.1869
     86  C          7.0280   15.9540    7.8510 C.2    51  GLY51       0.2309
     87  O          6.3800   15.4850    6.9160 O.2    51  GLY51      -0.2863
     88  N         12.1930   22.4140   17.2580 N.3    80  THR80      -0.1204
     89  CA        12.9820   22.3280   16.0400 C.3    80  THR80       0.1979
     90  C         14.3350   21.7180   16.4470 C.2    80  THR80       0.2460
     91  O         14.7700   21.8470   17.6040 O.2    80  THR80      -0.2732
     92  CB        13.0480   23.7630   15.4430 C.3    80  THR80       0.1783
     93  OG1       13.8010   23.6560   14.2510 O.3    80  THR80      -0.2211
     94  CG2       13.6340   24.7770   16.3700 C.3    80  THR80       0.0376
     95  N         14.9950   20.9310   15.6060 N.am   81  PRO81      -0.2717
     96  CA        16.3170   20.4020   15.8990 C.3    81  PRO81       0.1535
     97  C         17.3990   21.4180   15.6570 C.2    81  PRO81       0.2598
     98  O         18.5520   21.1320   15.9900 O.2    81  PRO81      -0.2715
     99  CB        16.4750   19.2100   15.0230 C.3    81  PRO81       0.0310
    100  CG        15.6210   19.6030   13.8360 C.3    81  PRO81       0.0237
    101  CD        14.3910   20.2770   14.4570 C.3    81  PRO81       0.0939
    102  N         17.0790   22.5410   15.0050 N.am   82  VAL82      -0.1978
    103  CA        18.0430   23.6090   14.8270 C.3    82  VAL82       0.1596
    104  C         17.2770   24.9470   14.7230 C.2    82  VAL82       0.2287
    105  O         16.0780   25.0080   14.4070 O.2    82  VAL82      -0.2864
    106  CB        18.9150   23.2190   13.5760 C.3    82  VAL82       0.0276
    107  CG1       18.1050   23.1950   12.3110 C.3    82  VAL82       0.0022
    108  CG2       20.0690   24.1820   13.4690 C.3    82  VAL82       0.0022
    109  N         16.3060   28.2770   13.1290 N.3    84  ILE84      -0.1245
    110  CA        16.2030   28.7330   11.7480 C.3    84  ILE84       0.1561
    111  C         16.0090   30.2600   11.6820 C.2    84  ILE84       0.2260
    112  O         15.0330   30.7690   12.2540 O.2    84  ILE84      -0.2867
    113  CB        14.9910   28.0060   11.0720 C.3    84  ILE84       0.0252
    114  CG1       15.0990   26.4930   11.2360 C.3    84  ILE84       0.0019
    115  CG2       14.9060   28.4220    9.6160 C.3    84  ILE84       0.0019
    116  CD1       16.4280   26.0030   10.6690 C.3    84  ILE84       0.0001
@<TRIPOS>BOND
     1    29    28    1
     2    29    30    1
     3    44    42   ar
     4    31    30    2
     5    30    32   am
     6    43    42   ar
     7    42    41    1
     8    83    81    1
     9    32    33    1
    10    81    80    1
    11    22    23    2
    12    22    21    1
    13    27    25   ar
    14    41    38    1
    15    37    34   am
    16    37    38    1
    17    34    33    1
    18    34    35    2
    19    33    36    1
    20    38    39    1
    21    79    78    2
    22    77    80    1
    23    77    78    1
    24    77    76    1
    25    21    20    1
    26    21    24    1
    27    80    82    1
    28    75    74    2
    29    25    24    1
    30    25    26   ar
    31    78    84   am
    32    76    74   am
    33     1     2    1
    34    74    73    1
    35     2     3    1
    36     2     5    1
    37    39    40    2
    38    39    45   am
    39    87    86    2
    40    71    70    2
    41    73    72    1
    42     3     4    2
    43     6     5    1
    44     6     7    1
    45    84    85    1
    46    70    72   am
    47    70    69    1
    48    45    46    1
    49    86    85    1
    50     7     8    1
    51    18    17    1
    52    69    68    1
    53    11     9    1
    54    17    19    1
    55    17    16    1
    56    68    62   am
    57     8     9    2
    58    46    47    1
    59    46    49    1
    60    52    50   ar
    61    48    47    2
    62     9    10    1
    63    14    15    2
    64    14    13    1
    65    50    51   ar
    66    50    49    1
    67   115   113    1
    68    16    13    1
    69    62    61    1
    70    62    63    2
    71    13    12    1
    72   116   114    1
    73    61    64    1
    74    61    60    1
    75    66    64    1
    76    64    65    1
    77   113   114    1
    78   113   110    1
    79   111   110    1
    80   111   112    2
    81   110   109    1
    82    59    57    1
    83   107   106    1
    84    65    67    1
    85    53    54    1
    86   108   106    1
    87   106   103    1
    88    57    54    1
    89    57    58    1
    90   100   101    1
    91   100    99    1
    92    93    92    1
    93    54    55    1
    94   105   104    2
    95   101    95    1
    96   104   103    1
    97    56    55    2
    98   103   102    1
    99   102    97   am
   100    99    96    1
   101    92    89    1
   102    92    94    1
   103    95    96    1
   104    95    90   am
   105    97    96    1
   106    97    98    2
   107    89    90    1
   108    89    88    1
   109    90    91    2
