@<TRIPOS>MOLECULE
tmp/1c72D00.pdb
 193 194 0 0 0
SMALL
GASTEIGER

@<TRIPOS>ATOM
      1  N         88.1860   50.0160   46.8530 N.3     6  TYR6       -0.1227
      2  CA        87.5970   51.3430   46.7330 C.3     6  TYR6        0.1736
      3  C         86.6150   51.5320   47.8960 C.2     6  TYR6        0.2595
      4  O         86.3680   50.5970   48.6580 O.2     6  TYR6       -0.2718
      5  CB        86.8720   51.4630   45.3870 C.3     6  TYR6        0.0548
      6  CG        86.5760   52.8830   44.9770 C.ar    6  TYR6       -0.0200
      7  CD1       87.6030   53.8070   44.8360 C.ar    6  TYR6       -0.0009
      8  CD2       85.2590   53.3310   44.8360 C.ar    6  TYR6       -0.0009
      9  CE1       87.3390   55.1470   44.5840 C.ar    6  TYR6        0.0417
     10  CE2       84.9790   54.6670   44.5780 C.ar    6  TYR6        0.0417
     11  CZ        86.0270   55.5750   44.4630 C.ar    6  TYR6        0.1957
     12  OH        85.7760   56.9180   44.2840 O.3     6  TYR6       -0.2866
     13  N         86.0890   52.7450   48.0560 N.am    7  TRP7       -0.1976
     14  CA        85.0470   53.0140   49.0450 C.3     7  TRP7        0.1640
     15  C         83.7450   52.3090   48.6880 C.2     7  TRP7        0.2290
     16  O         83.5610   51.8660   47.5560 O.2     7  TRP7       -0.2864
     17  CB        84.7640   54.5110   49.1230 C.3     7  TRP7        0.0576
     18  CG        85.9600   55.3410   49.3560 C.ar    7  TRP7        0.0006
     19  CD1       86.5300   56.1990   48.4780 C.ar    7  TRP7        0.0946
     20  CD2       86.7360   55.4130   50.5590 C.ar    7  TRP7        0.0152
     21  NE1       87.6130   56.8050   49.0500 N.ar    7  TRP7       -0.2442
     22  CE2       87.7740   56.3310   50.3250 C.ar    7  TRP7        0.0810
     23  CE3       86.6500   54.7930   51.8140 C.ar    7  TRP7        0.0012
     24  CZ2       88.7360   56.6440   51.2960 C.ar    7  TRP7        0.0191
     25  CZ3       87.6070   55.1110   52.7900 C.ar    7  TRP7        0.0001
     26  CH2       88.6350   56.0260   52.5180 C.ar    7  TRP7        0.0015
     27  N         81.1720   53.6620   47.6770 N.3     9  ILE9       -0.1245
     28  CA        80.4330   54.6050   46.8330 C.3     9  ILE9        0.1561
     29  C         80.6790   54.2630   45.3750 C.2     9  ILE9        0.2260
     30  O         81.4810   53.3850   45.0630 O.2     9  ILE9       -0.2867
     31  CB        80.8500   56.0950   47.0650 C.3     9  ILE9        0.0252
     32  CG1       82.3480   56.2760   46.7990 C.3     9  ILE9        0.0019
     33  CG2       80.4810   56.5350   48.4780 C.3     9  ILE9        0.0019
     34  CD1       82.7940   57.7100   46.6920 C.3     9  ILE9        0.0001
     35  N         81.5030   56.7140   42.6950 N.3    11  GLY11      -0.1210
     36  CA        82.7270   57.4310   42.3620 C.3    11  GLY11       0.1956
     37  C         83.4760   56.9910   41.1090 C.2    11  GLY11       0.2611
     38  O         82.8710   56.7120   40.0710 O.2    11  GLY11      -0.2717
     39  N         84.7870   56.8160   41.2700 N.am   12  LEU12      -0.1979
     40  CA        85.7290   56.5450   40.1790 C.3    12  LEU12       0.1596
     41  C         85.7430   55.0860   39.7160 C.2    12  LEU12       0.2287
     42  O         86.2430   54.7760   38.6240 O.2    12  LEU12      -0.2864
     43  CB        87.1440   56.9300   40.6270 C.3    12  LEU12       0.0297
     44  CG        87.8600   58.1580   40.0590 C.3    12  LEU12       0.0022
     45  CD1       86.8850   59.2610   39.7090 C.3    12  LEU12       0.0001
     46  CD2       88.8740   58.6380   41.0790 C.3    12  LEU12       0.0001
     47  N         83.1750   61.2190   59.7590 N.3    40  PHE40      -0.1241
     48  CA        83.4850   60.3010   58.6620 C.3    40  PHE40       0.1605
     49  C         84.8920   59.6990   58.7320 C.2    40  PHE40       0.2264
     50  O         85.7110   59.8920   57.8290 O.2    40  PHE40      -0.2867
     51  CB        83.2330   60.9820   57.3110 C.3    40  PHE40       0.0534
     52  CG        81.7780   61.2580   57.0450 C.ar   40  PHE40      -0.0203
     53  CD1       80.8670   60.2070   56.9350 C.ar   40  PHE40      -0.0042
     54  CD2       81.3040   62.5660   56.9940 C.ar   40  PHE40      -0.0042
     55  CE1       79.5040   60.4520   56.7850 C.ar   40  PHE40      -0.0003
     56  CE2       79.9410   62.8230   56.8430 C.ar   40  PHE40      -0.0003
     57  CZ        79.0380   61.7630   56.7400 C.ar   40  PHE40      -0.0000
     58  N         88.0680   57.8060   58.3220 N.3    42  PRO42      -0.2116
     59  CA        88.7520   57.1240   57.2140 C.3    42  PRO42       0.1372
     60  C         89.5650   55.8920   57.6270 C.2    42  PRO42       0.2244
     61  O         90.2170   55.2690   56.7860 O.2    42  PRO42      -0.2868
     62  CB        89.6800   58.2030   56.6450 C.3    42  PRO42       0.0268
     63  CG        89.3400   59.4830   57.3890 C.3    42  PRO42       0.0207
     64  CD        88.7620   59.0530   58.6870 C.3    42  PRO42       0.0892
     65  N         90.5490   52.4280   55.7690 N.3    45  TRP45      -0.1241
     66  CA        91.5610   52.4750   54.7080 C.3    45  TRP45       0.1605
     67  C         92.9440   52.8710   55.2140 C.2    45  TRP45       0.2264
     68  O         93.9360   52.2200   54.8840 O.2    45  TRP45      -0.2867
     69  CB        91.1330   53.4310   53.5830 C.3    45  TRP45       0.0550
     70  CG        92.2840   54.0350   52.7590 C.ar   45  TRP45       0.0003
     71  CD1       92.6430   55.3570   52.7100 C.ar   45  TRP45       0.0946
     72  CD2       93.0710   53.3760   51.7460 C.ar   45  TRP45       0.0152
     73  NE1       93.5660   55.5640   51.7130 N.ar   45  TRP45      -0.2442
     74  CE2       93.8430   54.3700   51.1030 C.ar   45  TRP45       0.0810
     75  CE3       93.1860   52.0460   51.3130 C.ar   45  TRP45       0.0012
     76  CZ2       94.7120   54.0780   50.0430 C.ar   45  TRP45       0.0191
     77  CZ3       94.0560   51.7590   50.2610 C.ar   45  TRP45       0.0001
     78  CH2       94.8040   52.7720   49.6390 C.ar   45  TRP45       0.0015
     79  N         96.5600   51.4310   54.1680 N.3    49  LYS49      -0.1245
     80  CA        97.1140   52.1290   53.0060 C.3    49  LYS49       0.1561
     81  C         98.5190   51.6630   52.6120 C.2    49  LYS49       0.2260
     82  O         98.8100   51.4970   51.4240 O.2    49  LYS49      -0.2867
     83  CB        97.1280   53.6410   53.2700 C.3    49  LYS49       0.0271
     84  CG        97.7250   54.4910   52.1470 C.3    49  LYS49       0.0035
     85  CD        98.0430   55.9120   52.6060 C.3    49  LYS49       0.0206
     86  CE        96.8050   56.6120   53.1640 C.3    49  LYS49       0.1093
     87  NZ        97.0960   57.9250   53.8290 N.3    49  LYS49      -0.1314
     88  N        100.1900   54.2460   46.9020 N.3    57  PRO57      -0.2102
     89  CA        98.9070   53.8510   47.4870 C.3    57  PRO57       0.1504
     90  C         97.7970   54.8710   47.2650 C.2    57  PRO57       0.2576
     91  O         97.9990   56.0790   47.4290 O.2    57  PRO57      -0.2718
     92  CB        99.2400   53.6700   48.9660 C.3    57  PRO57       0.0282
     93  CG       100.6880   53.2990   48.9680 C.3    57  PRO57       0.0208
     94  CD       101.2690   54.1910   47.9030 C.3    57  PRO57       0.0893
     95  N         96.6280   54.3630   46.8850 N.am   58  ASN58      -0.1961
     96  CA        95.5220   55.1910   46.4310 C.3    58  ASN58       0.1819
     97  C         94.2670   54.3380   46.2730 C.2    58  ASN58       0.2621
     98  O         94.3270   53.1090   46.3280 O.2    58  ASN58      -0.2715
     99  CB        95.8760   55.8110   45.0850 C.3    58  ASN58       0.1195
    100  CG        95.3630   57.2140   44.9370 C.2    58  ASN58       0.2630
    101  OD1       95.5460   57.8380   43.8920 O.2    58  ASN58      -0.2716
    102  ND2       94.7120   57.7270   45.9760 N.am   58  ASN58      -0.0877
    103  N         93.1390   54.9900   46.0140 N.am   59  LEU59      -0.1964
    104  CA        91.9080   54.2760   45.7010 C.3    59  LEU59       0.1713
    105  C         91.2550   54.8920   44.4800 C.2    59  LEU59       0.2458
    106  O         90.9740   56.0890   44.4660 O.2    59  LEU59      -0.2730
    107  CB        90.9460   54.3340   46.8810 C.3    59  LEU59       0.0310
    108  CG        91.3230   53.4500   48.0660 C.3    59  LEU59       0.0022
    109  CD1       90.5350   53.8560   49.2690 C.3    59  LEU59       0.0001
    110  CD2       91.0650   51.9970   47.7250 C.3    59  LEU59       0.0001
    111  N         90.9490   54.0730   43.4580 N.am   60  PRO60      -0.2727
    112  CA        90.9120   52.6040   43.4930 C.3    60  PRO60       0.1402
    113  C         92.2690   51.9340   43.3520 C.2    60  PRO60       0.2269
    114  O         93.2150   52.5180   42.8260 O.2    60  PRO60      -0.2865
    115  CB        90.0140   52.2440   42.3120 C.3    60  PRO60       0.0296
    116  CG        90.2470   53.3380   41.3450 C.3    60  PRO60       0.0237
    117  CD        90.4280   54.5920   42.1800 C.3    60  PRO60       0.0939
    118  N         95.5050   54.2550   40.4500 N.3    71  GLN71      -0.1231
    119  CA        95.0170   55.1390   39.3780 C.3    71  GLN71       0.1698
    120  C         93.9870   54.4860   38.4550 C.2    71  GLN71       0.2593
    121  O         94.2970   53.5500   37.7280 O.2    71  GLN71      -0.2718
    122  CB        96.1730   55.7170   38.5470 C.3    71  GLN71       0.0381
    123  CG        97.2600   56.4360   39.3510 C.3    71  GLN71       0.0905
    124  CD        96.7550   57.6650   40.0890 C.2    71  GLN71       0.2608
    125  OE1       96.0600   58.5050   39.5220 O.2    71  GLN71      -0.2717
    126  NE2       97.1150   57.7750   41.3660 N.am   71  GLN71      -0.0878
    127  N         92.7880   55.0650   38.4220 N.am   72  SER72      -0.1938
    128  CA        91.6460   54.5100   37.6960 C.3    72  SER72       0.2055
    129  C         91.9120   54.2890   36.2110 C.2    72  SER72       0.2643
    130  O         91.5360   53.2550   35.6610 O.2    72  SER72      -0.2714
    131  CB        90.4240   55.4210   37.8610 C.3    72  SER72       0.2130
    132  OG        90.4220   56.4970   36.9290 O.3    72  SER72      -0.2179
    133  N         92.4990   55.2910   35.5610 N.am   73  ASN73      -0.1971
    134  CA        92.8030   55.2210   34.1370 C.3    73  ASN73       0.1688
    135  C         93.7630   54.0780   33.8530 C.2    73  ASN73       0.2292
    136  O         93.5840   53.3280   32.8950 O.2    73  ASN73      -0.2864
    137  CB        93.4300   56.5320   33.6720 C.3    73  ASN73       0.1181
    138  CG        92.4140   57.6230   33.4740 C.2    73  ASN73       0.2629
    139  OD1       91.2800   57.3710   33.0820 O.2    73  ASN73      -0.2716
    140  ND2       92.8180   58.8530   33.7450 N.am   73  ASN73      -0.0877
    141  N         88.0970   63.0920   31.8300 N.3   104  MET104     -0.1245
    142  CA        88.5640   63.3350   33.1820 C.3   104  MET104      0.1570
    143  C         88.3760   64.8000   33.5340 C.2   104  MET104      0.2261
    144  O         87.9900   65.1140   34.6470 O.2   104  MET104     -0.2867
    145  CB        90.0260   62.9450   33.3150 C.3   104  MET104      0.0387
    146  CG        90.5620   63.1590   34.7090 C.3   104  MET104      0.0595
    147  SD        89.6120   62.2310   35.9200 S.3   104  MET104     -0.1393
    148  CE        90.6990   60.7750   36.1340 C.3   104  MET104      0.0692
    149  N         81.1590   69.4840   45.2790 N.3   115  TYR115     -0.1241
    150  CA        81.8580   69.4730   46.5610 C.3   115  TYR115      0.1605
    151  C         82.0110   70.8700   47.1710 C.2   115  TYR115      0.2264
    152  O         82.2750   71.0050   48.3650 O.2   115  TYR115     -0.2867
    153  CB        83.2290   68.8260   46.4010 C.3   115  TYR115      0.0534
    154  CG        83.1790   67.3230   46.3560 C.ar  115  TYR115     -0.0201
    155  CD1       82.9770   66.5800   47.5220 C.ar  115  TYR115     -0.0009
    156  CD2       83.3420   66.6360   45.1530 C.ar  115  TYR115     -0.0009
    157  CE1       82.9390   65.1830   47.4880 C.ar  115  TYR115      0.0417
    158  CE2       83.3040   65.2450   45.1060 C.ar  115  TYR115      0.0417
    159  CZ        83.1010   64.5240   46.2770 C.ar  115  TYR115      0.1957
    160  OH        83.0360   63.1510   46.2350 O.3   115  TYR115     -0.2866
    161  N         77.0850   58.8070   43.8130 N.3   207  ILE207     -0.1231
    162  CA        78.1810   59.1290   42.9050 C.3   207  ILE207      0.1692
    163  C         79.3440   59.7340   43.6770 C.2   207  ILE207      0.2592
    164  O         80.5070   59.4160   43.4100 O.2   207  ILE207     -0.2718
    165  CB        77.7510   60.1260   41.8110 C.3   207  ILE207      0.0266
    166  CG1       76.6890   59.4980   40.9070 C.3   207  ILE207      0.0019
    167  CG2       78.9510   60.5160   40.9740 C.3   207  ILE207      0.0020
    168  CD1       75.9470   60.5020   40.0410 C.3   207  ILE207      0.0001
    169  N         79.0090   60.5270   44.6930 N.am  208  PHE208     -0.1962
    170  CA        79.9940   61.3110   45.4280 C.3   208  PHE208      0.1771
    171  C         80.1450   60.8990   46.8830 C.2   208  PHE208      0.2619
    172  O         79.3090   60.1870   47.4340 O.2   208  PHE208     -0.2715
    173  CB        79.6410   62.7980   45.3540 C.3   208  PHE208      0.0574
    174  CG        79.8790   63.4000   44.0070 C.ar  208  PHE208     -0.0200
    175  CD1       81.1220   63.2800   43.3880 C.ar  208  PHE208     -0.0042
    176  CD2       78.8480   64.0240   43.3200 C.ar  208  PHE208     -0.0042
    177  CE1       81.3320   63.7710   42.1010 C.ar  208  PHE208     -0.0003
    178  CE2       79.0430   64.5180   42.0330 C.ar  208  PHE208     -0.0003
    179  CZ        80.2880   64.3920   41.4240 C.ar  208  PHE208     -0.0000
    180  N         81.2500   61.3300   47.4790 N.am  209  TRP209     -0.1974
    181  CA        81.4960   61.1830   48.9060 C.3   209  TRP209      0.1640
    182  C         80.3810   61.8740   49.6760 C.2   209  TRP209      0.2290
    183  O         79.7360   62.7860   49.1630 O.2   209  TRP209     -0.2864
    184  CB        82.8470   61.8190   49.2480 C.3   209  TRP209      0.0576
    185  CG        83.4050   61.4550   50.5860 C.ar  209  TRP209      0.0006
    186  CD1       83.7250   62.3120   51.5950 C.ar  209  TRP209      0.0946
    187  CD2       83.8140   60.1530   51.0180 C.ar  209  TRP209      0.0152
    188  NE1       84.3120   61.6290   52.6290 N.ar  209  TRP209     -0.2442
    189  CE2       84.3810   60.3020   52.3030 C.ar  209  TRP209      0.0810
    190  CE3       83.7640   58.8760   50.4430 C.ar  209  TRP209      0.0012
    191  CZ2       84.8950   59.2190   53.0240 C.ar  209  TRP209      0.0191
    192  CZ3       84.2750   57.7980   51.1610 C.ar  209  TRP209      0.0001
    193  CH2       84.8330   57.9790   52.4370 C.ar  209  TRP209      0.0015
@<TRIPOS>BOND
     1   141   142    1
     2   136   135    2
     3   139   138    2
     4   142   145    1
     5   142   143    1
     6   145   146    1
     7   138   137    1
     8   138   140   am
     9   143   144    2
    10   137   134    1
    11   135   134    1
    12   134   133    1
    13   146   147    1
    14   133   129   am
    15   130   129    2
    16   147   148    1
    17   129   128    1
    18   132   131    1
    19   128   131    1
    20   128   127    1
    21   121   120    2
    22   127   120   am
    23   120   119    1
    24   122   123    1
    25   122   119    1
    26    42    41    2
    27   123   124    1
    28   119   118    1
    29   125   124    2
    30    45    44    1
    31    41    40    1
    32   168   166    1
    33    44    43    1
    34    44    46    1
    35    38    37    2
    36   124   126   am
    37    40    43    1
    38    40    39    1
    39   166   165    1
    40   167   165    1
    41    37    39   am
    42    37    36    1
    43   116   117    1
    44   116   115    1
    45   179   178   ar
    46   179   177   ar
    47   165   162    1
    48   178   176   ar
    49   177   175   ar
    50   117   111    1
    51   115   112    1
    52    36    35    1
    53   114   113    2
    54   162   163    1
    55   162   161    1
    56   176   174   ar
    57   113   112    1
    58   175   174   ar
    59   164   163    2
    60   111   112    1
    61   111   105   am
    62   163   169   am
    63   101   100    2
    64   174   173    1
    65    12    11    1
    66    11    10   ar
    67    11     9   ar
    68   106   105    2
    69   105   104    1
    70    10     8   ar
    71     9     7   ar
    72   169   170    1
    73     7     6   ar
    74     8     6   ar
    75   100    99    1
    76   100   102   am
    77     6     5    1
    78    30    29    2
    79    99    96    1
    80   158   156   ar
    81   158   159   ar
    82   156   154   ar
    83   149   150    1
    84   173   170    1
    85    29    28    1
    86     5     2    1
    87   170   171    1
    88   104   103    1
    89   104   107    1
    90   103    97   am
    91   160   159    1
    92    97    98    2
    93    97    96    1
    94   159   157   ar
    95   154   153    1
    96   154   155   ar
    97   153   150    1
    98    96    95    1
    99   150   151    1
   100    34    32    1
   101     2     1    1
   102     2     3    1
   103    32    31    1
   104    28    31    1
   105    28    27    1
   106   107   108    1
   107   171   172    2
   108   171   180   am
   109    95    90   am
   110    88    89    1
   111    88    94    1
   112    31    33    1
   113   151   152    2
   114    90    91    2
   115    90    89    1
   116   180   181    1
   117    89    92    1
   118   157   155   ar
   119    16    15    2
   120   110   108    1
   121     3    13   am
   122     3     4    2
   123    94    93    1
   124    13    14    1
   125   108   109    1
   126    19    21   ar
   127    19    18   ar
   128    15    14    1
   129   181   184    1
   130   181   182    1
   131    92    93    1
   132    14    17    1
   133    21    22   ar
   134    17    18    1
   135   183   182    2
   136   184   185    1
   137    18    20   ar
   138    78    76   ar
   139    78    77   ar
   140    76    74   ar
   141    77    75   ar
   142    22    20   ar
   143    22    24   ar
   144   190   187   ar
   145   190   192   ar
   146    20    23   ar
   147   185   187   ar
   148   185   186   ar
   149   187   189   ar
   150    74    73   ar
   151    74    72   ar
   152   192   193   ar
   153    24    26   ar
   154    75    72   ar
   155    82    81    2
   156   186   188   ar
   157    73    71   ar
   158    72    70   ar
   159    23    25   ar
   160    84    85    1
   161    84    83    1
   162   189   188   ar
   163   189   191   ar
   164   193   191   ar
   165    26    25   ar
   166    85    86    1
   167    81    80    1
   168    71    70   ar
   169    70    69    1
   170    80    83    1
   171    80    79    1
   172    86    87    1
   173    69    66    1
   174    66    67    1
   175    66    65    1
   176    68    67    2
   177    62    59    1
   178    62    63    1
   179    57    55   ar
   180    57    56   ar
   181    55    53   ar
   182    61    60    2
   183    56    54   ar
   184    53    52   ar
   185    54    52   ar
   186    52    51    1
   187    59    60    1
   188    59    58    1
   189    51    48    1
   190    63    64    1
   191    50    49    2
   192    58    64    1
   193    48    49    1
   194    48    47    1
