@<TRIPOS>MOLECULE
tmp/1c75A00.pdb
 191 183 0 0 0
SMALL
GASTEIGER

@<TRIPOS>ATOM
      1  N          4.1720   21.5280   13.8180 N.3     6  VAL6       -0.1231
      2  CA         3.8870   21.4090   12.4310 C.3     6  VAL6        0.1692
      3  C          5.1870   21.3060   11.6190 C.2     6  VAL6        0.2591
      4  O          5.3130   20.5120   10.7040 O.2     6  VAL6       -0.2718
      5  CB         3.0100   22.5890   11.9040 C.3     6  VAL6        0.0266
      6  CG1        2.8520   22.5030   10.4130 C.3     6  VAL6        0.0020
      7  CG2        1.6750   22.5940   12.6840 C.3     6  VAL6        0.0020
      8  N          6.1730   22.1510   11.9520 N.am    7  VAL7       -0.1980
      9  CA         7.4680   22.1430   11.2440 C.3     7  VAL7        0.1595
     10  C          8.1510   20.7850   11.4470 C.2     7  VAL7        0.2287
     11  O          8.7120   20.2200   10.4980 O.2     7  VAL7       -0.2864
     12  CB         8.3400   23.3110   11.7170 C.3     7  VAL7        0.0276
     13  CG1        9.8060   23.1770   11.2470 C.3     7  VAL7        0.0022
     14  CG2        7.7500   24.6340   11.2220 C.3     7  VAL7        0.0022
     15  N          6.2930   18.2920    9.2270 N.3    10  LYS10      -0.1231
     16  CA         6.0950   18.4770    7.8060 C.3    10  LYS10       0.1693
     17  C          7.3090   19.0110    7.0400 C.2    10  LYS10       0.2592
     18  O          7.2980   18.9980    5.8100 O.2    10  LYS10      -0.2718
     19  CB         4.9150   19.4530    7.5460 C.3    10  LYS10       0.0285
     20  CG         3.6200   18.9010    8.0430 C.3    10  LYS10       0.0035
     21  CD         2.4650   19.7380    7.4130 C.3    10  LYS10       0.0206
     22  CE         1.0830   19.1080    7.6180 C.3    10  LYS10       0.1093
     23  NZ         0.0460   20.0000    7.0480 N.3    10  LYS10      -0.1314
     24  N          8.3300   19.5330    7.7400 N.am   11  CYS11      -0.1970
     25  CA         9.3800   20.2660    7.0410 C.3    11  CYS11       0.1712
     26  C         10.7450   19.6530    7.1700 C.2    11  CYS11       0.2296
     27  O         11.6380   19.9430    6.3510 O.2    11  CYS11      -0.2864
     28  CB         9.4590   21.7380    7.5200 C.3    11  CYS11       0.0983
     29  SG         7.8550   22.5740    7.6580 S.3    11  CYS11      -0.0798
     30  N         11.9300   16.5870    6.8820 N.3    13  SER13      -0.1202
     31  CA        12.3810   15.5490    5.9950 C.3    13  SER13       0.2020
     32  C         13.3140   16.1080    4.9280 C.2    13  SER13       0.2619
     33  O         14.1970   15.4260    4.4960 O.2    13  SER13      -0.2717
     34  CB        11.2090   14.8480    5.3050 C.3    13  SER13       0.2103
     35  OG        10.4370   15.8290    4.5950 O.3    13  SER13      -0.2182
     36  N         13.1020   17.3430    4.5250 N.am   14  CYS14      -0.1955
     37  CA        13.9660   18.0310    3.5630 C.3    14  CYS14       0.1843
     38  C         14.9150   19.0220    4.2260 C.2    14  CYS14       0.2625
     39  O         16.0520   19.1980    3.7720 O.2    14  CYS14      -0.2714
     40  CB        13.1590   18.7370    2.4780 C.3    14  CYS14       0.0997
     41  SG        12.1200   17.5100    1.6240 S.3    14  CYS14      -0.0797
     42  N         14.4780   19.7230    5.2730 N.am   15  HIS15      -0.1973
     43  CA        15.2450   20.8240    5.8360 C.3    15  HIS15       0.1656
     44  C         16.0720   20.4730    7.0770 C.2    15  HIS15       0.2291
     45  O         16.8000   21.3370    7.5470 O.2    15  HIS15      -0.2864
     46  CB        14.3300   22.0210    6.1220 C.3    15  HIS15       0.0771
     47  CG        13.7990   22.6620    4.8660 C.ar   15  HIS15       0.0820
     48  ND1       14.6060   23.3130    4.0000 N.ar   15  HIS15      -0.2267
     49  CD2       12.5580   22.7320    4.3290 C.ar   15  HIS15       0.1154
     50  CE1       13.8660   23.7980    2.9870 C.ar   15  HIS15       0.1986
     51  NE2       12.6110   23.4610    3.1710 N.ar   15  HIS15      -0.2212
     52  N         18.5710   17.4550    2.6410 N.3    23  SER23      -0.1202
     53  CA        18.5470   17.4380    1.1740 C.3    23  SER23       0.2020
     54  C         18.3300   18.8240    0.6370 C.2    23  SER23       0.2619
     55  O         18.7740   19.1380   -0.4720 O.2    23  SER23      -0.2717
     56  CB        17.4290   16.4850    0.6720 C.3    23  SER23       0.2103
     57  OG        16.1930   16.7940    1.1860 O.3    23  SER23      -0.2182
     58  N         17.5550   19.6640    1.3240 N.am   24  ALA24      -0.1965
     59  CA        17.2240   21.0100    0.9620 C.3    24  ALA24       0.1713
     60  C         17.9840   22.0130    1.8670 C.2    24  ALA24       0.2458
     61  O         18.5410   21.6510    2.9120 O.2    24  ALA24      -0.2730
     62  CB        15.7190   21.2390    1.0520 C.3    24  ALA24       0.0333
     63  N         17.9770   23.2990    1.5020 N.am   25  PRO25      -0.2716
     64  CA        18.7520   24.3070    2.2450 C.3    25  PRO25       0.1536
     65  C         18.2710   24.5430    3.6670 C.2    25  PRO25       0.2598
     66  O         17.1490   24.2370    4.0720 O.2    25  PRO25      -0.2715
     67  CB        18.6170   25.5400    1.3740 C.3    25  PRO25       0.0310
     68  CG        18.3880   25.0320   -0.0050 C.3    25  PRO25       0.0237
     69  CD        17.4610   23.8690    0.2360 C.3    25  PRO25       0.0939
     70  N         19.1250   25.1860    4.4700 N.am   26  ALA26      -0.1964
     71  CA        18.7030   25.5830    5.8150 C.3    26  ALA26       0.1728
     72  C         17.5510   26.5920    5.7780 C.2    26  ALA26       0.2616
     73  O         17.4640   27.4270    4.8890 O.2    26  ALA26      -0.2715
     74  CB        19.8740   26.2570    6.5090 C.3    26  ALA26       0.0334
     75  N         16.6740   26.4760    6.7960 N.am   27  ILE27      -0.1977
     76  CA        15.6280   27.4460    7.0630 C.3    27  ILE27       0.1596
     77  C         15.6380   27.9630    8.4760 C.2    27  ILE27       0.2287
     78  O         14.7320   28.6950    8.8870 O.2    27  ILE27      -0.2864
     79  CB        14.2150   26.9060    6.7050 C.3    27  ILE27       0.0276
     80  CG1       13.7900   25.7270    7.5610 C.3    27  ILE27       0.0022
     81  CG2       14.1620   26.5920    5.2060 C.3    27  ILE27       0.0022
     82  CD1       12.3400   25.3250    7.3870 C.3    27  ILE27       0.0001
     83  N         15.4570   31.6710    8.4580 N.3    30  ALA30      -0.1245
     84  CA        14.7600   32.1550    7.2730 C.3    30  ALA30       0.1562
     85  C         14.2620   33.5780    7.3960 C.2    30  ALA30       0.2260
     86  O         14.1920   34.3030    6.3890 O.2    30  ALA30      -0.2867
     87  CB        13.6150   31.2280    6.9230 C.3    30  ALA30       0.0290
     88  N         16.2520   36.3800    5.8890 N.3    33  ASN33      -0.1225
     89  CA        16.3610   36.4400    4.4340 C.3    33  ASN33       0.1785
     90  C         15.0390   36.6790    3.7210 C.2    33  ASN33       0.2597
     91  O         15.0430   37.1060    2.5640 O.2    33  ASN33      -0.2718
     92  CB        17.0120   35.1480    3.9430 C.3    33  ASN33       0.1169
     93  CG        18.3350   34.8440    4.6740 C.2    33  ASN33       0.2627
     94  OD1       19.1780   35.7310    4.6960 O.2    33  ASN33      -0.2716
     95  ND2       18.4770   33.6480    5.2520 N.am   33  ASN33      -0.0877
     96  N         13.9210   36.4050    4.4010 N.am   34  TYR34      -0.1976
     97  CA        12.5870   36.4650    3.8200 C.3    34  TYR34       0.1639
     98  C         11.6450   37.1670    4.7800 C.2    34  TYR34       0.2290
     99  O         11.7580   37.0070    5.9910 O.2    34  TYR34      -0.2864
    100  CB        12.0320   35.0100    3.5930 C.3    34  TYR34       0.0560
    101  CG        12.8540   34.2480    2.6000 C.ar   34  TYR34      -0.0198
    102  CD1       13.9550   33.5060    2.9960 C.ar   34  TYR34      -0.0009
    103  CD2       12.5780   34.2650    1.2200 C.ar   34  TYR34      -0.0009
    104  CE1       14.7350   32.8010    2.1340 C.ar   34  TYR34       0.0417
    105  CE2       13.3580   33.5710    0.3360 C.ar   34  TYR34       0.0417
    106  CZ        14.4480   32.8550    0.7790 C.ar   34  TYR34       0.1957
    107  OH        15.3030   32.1780   -0.0980 O.3    34  TYR34      -0.2866
    108  N          7.6270   33.9170    3.0820 N.3    39  ILE39      -0.1245
    109  CA         7.6400   32.5780    3.6270 C.3    39  ILE39       0.1561
    110  C          6.2720   31.9220    3.4260 C.2    39  ILE39       0.2260
    111  O          6.2010   30.7430    3.0550 O.2    39  ILE39      -0.2867
    112  CB         8.0750   32.5820    5.1190 C.3    39  ILE39       0.0252
    113  CG1        9.5270   33.0740    5.2330 C.3    39  ILE39       0.0019
    114  CG2        7.8890   31.2120    5.7000 C.3    39  ILE39       0.0019
    115  CD1        9.9180   33.4590    6.6530 C.3    39  ILE39       0.0001
    116  N          5.9500   30.7490   -0.1370 N.3    42  ILE42      -0.1231
    117  CA         6.7300   29.5440   -0.3390 C.3    42  ILE42       0.1692
    118  C          6.0290   28.3010    0.2150 C.2    42  ILE42       0.2591
    119  O          5.9910   27.2630   -0.4270 O.2    42  ILE42      -0.2718
    120  CB         8.1400   29.7030    0.2660 C.3    42  ILE42       0.0266
    121  CG1        8.9700   30.7310   -0.5370 C.3    42  ILE42       0.0019
    122  CG2        8.8500   28.3680    0.3730 C.3    42  ILE42       0.0020
    123  CD1       10.1620   31.2690    0.1900 C.3    42  ILE42       0.0001
    124  N          5.4920   28.4130    1.4210 N.am   43  ILE43      -0.1980
    125  CA         4.8100   27.2670    2.0190 C.3    43  ILE43       0.1595
    126  C          3.6000   26.8780    1.2170 C.2    43  ILE43       0.2287
    127  O          3.3280   25.7150    0.9290 O.2    43  ILE43      -0.2864
    128  CB         4.4510   27.5710    3.4930 C.3    43  ILE43       0.0276
    129  CG1        5.6970   27.7480    4.3450 C.3    43  ILE43       0.0022
    130  CG2        3.5580   26.4650    4.0690 C.3    43  ILE43       0.0022
    131  CD1        5.4410   28.3400    5.7140 C.3    43  ILE43       0.0001
    132  N          8.4510   26.7490   -4.3530 N.3    47  GLN47      -0.1231
    133  CA         9.4130   27.6980   -4.9530 C.3    47  GLN47       0.1698
    134  C         10.5630   26.8760   -5.4050 C.2    47  GLN47       0.2593
    135  O         11.1380   26.0990   -4.6510 O.2    47  GLN47      -0.2718
    136  CB         9.9040   28.7660   -3.9600 C.3    47  GLN47       0.0381
    137  CG        10.8180   29.8570   -4.5950 C.3    47  GLN47       0.0905
    138  CD        10.7890   31.1470   -3.7990 C.2    47  GLN47       0.2608
    139  OE1       11.6790   31.6190   -3.1470 O.2    47  GLN47      -0.2717
    140  NE2        9.6580   31.9300   -3.7920 N.am   47  GLN47      -0.0878
    141  N         10.9530   27.0060   -6.6810 N.am   48  GLY48      -0.1942
    142  CA        12.0890   26.2520   -7.2180 C.3    48  GLY48       0.2014
    143  C         11.8410   24.7640   -6.9770 C.2    48  GLY48       0.2639
    144  O         10.7910   24.2050   -7.3260 O.2    48  GLY48      -0.2714
    145  N         12.7520   24.0370   -6.3460 N.am   49  GLY49      -0.1939
    146  CA        12.6720   22.6810   -6.0450 C.3    49  GLY49       0.2014
    147  C         11.6840   22.2960   -4.9510 C.2    49  GLY49       0.2639
    148  O         11.4610   21.1090   -4.7620 O.2    49  GLY49      -0.2714
    149  N         11.1430   23.2270   -4.2110 N.am   50  MET50      -0.1963
    150  CA        10.1670   22.9010   -3.1320 C.3    50  MET50       0.1722
    151  C          8.7700   22.7940   -3.7050 C.2    50  MET50       0.2458
    152  O          8.3010   23.7500   -4.3410 O.2    50  MET50      -0.2730
    153  CB        10.1850   23.9570   -2.0660 C.3    50  MET50       0.0427
    154  CG         9.3070   23.6060   -0.8950 C.3    50  MET50       0.0599
    155  SD         9.5050   24.7790    0.4660 S.3    50  MET50      -0.1393
    156  CE         7.8780   24.6500    1.2190 C.3    50  MET50       0.0692
    157  N          8.0270   21.7360   -3.4240 N.am   51  PRO51      -0.2727
    158  CA         6.6120   21.6580   -3.8710 C.3    51  PRO51       0.1402
    159  C          5.7330   22.5850   -3.0710 C.2    51  PRO51       0.2269
    160  O          6.0550   22.9420   -1.9390 O.2    51  PRO51      -0.2865
    161  CB         6.2170   20.2030   -3.6020 C.3    51  PRO51       0.0296
    162  CG         7.0790   19.8320   -2.4550 C.3    51  PRO51       0.0237
    163  CD         8.4050   20.5550   -2.5920 C.3    51  PRO51       0.0939
    164  N          2.2770   21.8420    1.0380 N.3    54  ILE54      -0.1231
    165  CA         2.6310   21.0440    2.1850 C.3    54  ILE54       0.1692
    166  C          1.9180   21.4910    3.4400 C.2    54  ILE54       0.2591
    167  O          1.5290   20.6170    4.2910 O.2    54  ILE54      -0.2718
    168  CB         4.1660   21.0530    2.4020 C.3    54  ILE54       0.0266
    169  CG1        4.8390   20.3360    1.2300 C.3    54  ILE54       0.0019
    170  CG2        4.5520   20.4170    3.7120 C.3    54  ILE54       0.0020
    171  CD1        6.3390   20.5730    1.0890 C.3    54  ILE54       0.0001
    172  N          1.6450   22.7810    3.5920 N.am   55  ALA55      -0.1980
    173  CA         0.7580   23.2860    4.6400 C.3    55  ALA55       0.1597
    174  C         -0.1360   24.3560    4.0480 C.2    55  ALA55       0.2287
    175  O          0.1780   24.9140    2.9830 O.2    55  ALA55      -0.2864
    176  CB         1.5320   23.7920    5.8460 C.3    55  ALA55       0.0319
    177  N          3.1270   28.9190   10.8280 N.3    63  VAL63      -0.1245
    178  CA         4.5120   28.5350   10.5210 C.3    63  VAL63       0.1561
    179  C          5.2690   29.7070    9.9270 C.2    63  VAL63       0.2260
    180  O          6.4160   29.9510   10.3060 O.2    63  VAL63      -0.2867
    181  CB         4.5590   27.2620    9.6280 C.3    63  VAL63       0.0252
    182  CG1        5.9830   27.0130    9.1370 C.3    63  VAL63       0.0019
    183  CG2        4.0240   26.0790   10.3740 C.3    63  VAL63       0.0019
    184  N          8.6360   31.2570   11.6390 N.3    67  LEU67      -0.1245
    185  CA         9.8990   31.3020   10.9180 C.3    67  LEU67       0.1561
    186  C         10.3990   32.7100   10.6520 C.2    67  LEU67       0.2260
    187  O         11.5740   32.9920   10.6400 O.2    67  LEU67      -0.2867
    188  CB         9.8520   30.5570    9.5740 C.3    67  LEU67       0.0270
    189  CG         9.8130   29.0470    9.6700 C.3    67  LEU67       0.0019
    190  CD1        9.5780   28.5140    8.2490 C.3    67  LEU67       0.0001
    191  CD2       11.1200   28.4950   10.2340 C.3    67  LEU67       0.0001
@<TRIPOS>BOND
     1   144   143    2
     2   142   143    1
     3   142   141    1
     4   143   145   am
     5   141   134   am
     6   145   146    1
     7   146   147    1
     8   134   133    1
     9   134   135    2
    10   133   132    1
    11   133   136    1
    12   147   148    2
    13   147   149   am
    14   137   136    1
    15   137   138    1
    16   152   151    2
    17   149   150    1
    18   158   161    1
    19   158   157    1
    20   158   159    1
    21   138   140   am
    22   138   139    2
    23   151   157   am
    24   151   150    1
    25   161   162    1
    26   157   163    1
    27   150   153    1
    28   159   160    2
    29   163   162    1
    30   153   154    1
    31   154   155    1
    32   121   123    1
    33   121   120    1
    34    55    54    2
    35   119   118    2
    36   117   116    1
    37   117   118    1
    38   117   120    1
    39   107   106    1
    40    68    69    1
    41    68    67    1
    42   118   124   am
    43    69    63    1
    44   120   122    1
    45   105   106   ar
    46   105   103   ar
    47   155   156    1
    48    54    53    1
    49    54    58   am
    50    56    53    1
    51    56    57    1
    52   106   104   ar
    53   127   126    2
    54    59    62    1
    55    59    58    1
    56    59    60    1
    57   164   165    1
    58   171   169    1
    59    53    52    1
    60   126   125    1
    61   103   101   ar
    62   169   168    1
    63    67    64    1
    64   124   125    1
    65    63    60   am
    66    63    64    1
    67    41    40    1
    68    60    61    2
    69   125   128    1
    70   104   102   ar
    71   165   168    1
    72   165   166    1
    73    64    65    1
    74   168   170    1
    75    40    37    1
    76    91    90    2
    77   101   102   ar
    78   101   100    1
    79   175   174    2
    80    50    51   ar
    81    50    48   ar
    82   111   110    2
    83   108   109    1
    84    51    49   ar
    85   110   109    1
    86   166   172   am
    87   166   167    2
    88   128   130    1
    89   128   129    1
    90    37    38    1
    91    37    36    1
    92   172   173    1
    93   100    97    1
    94   109   112    1
    95    65    66    2
    96    65    70   am
    97    90    96   am
    98    90    89    1
    99    39    38    2
   100    97    96    1
   101    97    98    1
   102    92    89    1
   103    92    93    1
   104    48    47   ar
   105   174   173    1
   106    38    42   am
   107    49    47   ar
   108   129   131    1
   109    89    88    1
   110    70    71    1
   111    33    32    2
   112    36    32   am
   113    35    34    1
   114   173   176    1
   115    93    94    2
   116    93    95   am
   117    98    99    2
   118    47    46    1
   119    73    72    2
   120    32    31    1
   121   112   113    1
   122   112   114    1
   123    81    79    1
   124   113   115    1
   125    42    43    1
   126    34    31    1
   127    72    71    1
   128    72    75   am
   129    18    17    2
   130    71    74    1
   131    43    46    1
   132    43    44    1
   133    31    30    1
   134    27    26    2
   135    86    85    2
   136    79    76    1
   137    79    80    1
   138    75    76    1
   139    87    84    1
   140    17    24   am
   141    17    16    1
   142    25    26    1
   143    25    28    1
   144    25    24    1
   145    23    22    1
   146    76    77    1
   147    44    45    2
   148    84    85    1
   149    84    83    1
   150    82    80    1
   151    21    22    1
   152    21    20    1
   153    28    29    1
   154    19    16    1
   155    19    20    1
   156    16    15    1
   157   190   189    1
   158    77    78    2
   159   182   181    1
   160   188   189    1
   161   188   185    1
   162   181   183    1
   163   181   178    1
   164   189   191    1
   165   179   180    2
   166   179   178    1
   167     6     5    1
   168    11    10    2
   169   178   177    1
   170   187   186    2
   171   186   185    1
   172     4     3    2
   173   185   184    1
   174    14    12    1
   175     9    10    1
   176     9    12    1
   177     9     8    1
   178    13    12    1
   179     3     8   am
   180     3     2    1
   181     5     2    1
   182     5     7    1
   183     2     1    1
