@<TRIPOS>MOLECULE
tmp/1c7dA00.pdb
 217 206 0 0 0
SMALL
GASTEIGER

@<TRIPOS>ATOM
      1  N         23.6710    7.6110   29.8540 N.3    32  MET32      -0.1245
      2  CA        22.2220    7.8130   29.9580 C.3    32  MET32       0.1570
      3  C         21.4540    6.7560   29.1770 C.2    32  MET32       0.2261
      4  O         20.5070    6.1630   29.6970 O.2    32  MET32      -0.2867
      5  CB        21.8510    9.2070   29.4330 C.3    32  MET32       0.0387
      6  CG        20.3760    9.5480   29.6010 C.3    32  MET32       0.0595
      7  SD        19.9270   11.1430   28.8960 S.3    32  MET32      -0.1393
      8  CE        20.1830   10.8430   27.1550 C.3    32  MET32       0.0692
      9  N         15.0120    6.9800   27.8930 N.3    39  THR39      -0.1218
     10  CA        15.4370    8.1750   27.1770 C.3    39  THR39       0.1862
     11  C         15.7190    7.9160   25.7010 C.2    39  THR39       0.2287
     12  O         15.7990    8.8870   24.9360 O.2    39  THR39      -0.2866
     13  CB        16.7060    8.7720   27.8250 C.3    39  THR39       0.1770
     14  OG1       17.7400    7.7750   27.7950 O.3    39  THR39      -0.2211
     15  CG2       16.4190    9.0950   29.2870 C.3    39  THR39       0.0375
     16  N         13.4380    9.2740   22.6610 N.3    42  TYR42      -0.1227
     17  CA        13.5800   10.5620   21.9990 C.3    42  TYR42       0.1736
     18  C         14.5570   10.4930   20.8240 C.2    42  TYR42       0.2595
     19  O         14.6980   11.4730   20.0830 O.2    42  TYR42      -0.2718
     20  CB        14.0600   11.6290   22.9990 C.3    42  TYR42       0.0548
     21  CG        12.9850   11.8910   24.0450 C.ar   42  TYR42      -0.0200
     22  CD1       11.9320   12.7370   23.7350 C.ar   42  TYR42      -0.0009
     23  CD2       13.0270   11.2960   25.2950 C.ar   42  TYR42      -0.0009
     24  CE1       10.9420   12.9880   24.6620 C.ar   42  TYR42       0.0417
     25  CE2       12.0310   11.5400   26.2390 C.ar   42  TYR42       0.0417
     26  CZ        10.9990   12.3830   25.9010 C.ar   42  TYR42       0.1957
     27  OH        10.0020   12.6550   26.8080 O.3    42  TYR42      -0.2866
     28  N         15.2350    9.3610   20.6630 N.am   43  PHE43      -0.1976
     29  CA        16.2290    9.2730   19.5920 C.3    43  PHE43       0.1639
     30  C         16.0030    8.1030   18.6510 C.2    43  PHE43       0.2290
     31  O         16.9560    7.4070   18.2740 O.2    43  PHE43      -0.2864
     32  CB        17.6370    9.1810   20.2020 C.3    43  PHE43       0.0560
     33  CG        18.0550   10.4230   20.9720 C.ar   43  PHE43      -0.0200
     34  CD1       17.7750   10.5480   22.3220 C.ar   43  PHE43      -0.0042
     35  CD2       18.7300   11.4610   20.3530 C.ar   43  PHE43      -0.0042
     36  CE1       18.1600   11.6750   23.0230 C.ar   43  PHE43      -0.0003
     37  CE2       19.1210   12.5940   21.0370 C.ar   43  PHE43      -0.0003
     38  CZ        18.8380   12.7010   22.3920 C.ar   43  PHE43      -0.0000
     39  N         15.6080    8.0060   15.6380 N.3    45  HIS45      -0.1226
     40  CA        16.2030    8.3260   14.3500 C.3    45  HIS45       0.1752
     41  C         17.7270    8.2830   14.3730 C.2    45  HIS45       0.2596
     42  O         18.3700    8.6160   13.3760 O.2    45  HIS45      -0.2718
     43  CB        15.7550    9.7140   13.8850 C.3    45  HIS45       0.0759
     44  CG        16.1030   10.8470   14.7970 C.ar   45  HIS45       0.0818
     45  ND1       15.8060   10.8730   16.1400 N.ar   45  HIS45      -0.2268
     46  CD2       16.7190   12.0230   14.5440 C.ar   45  HIS45       0.1154
     47  CE1       16.2270   12.0040   16.6740 C.ar   45  HIS45       0.1986
     48  NE2       16.7910   12.7260   15.7170 N.ar   45  HIS45      -0.2212
     49  N         18.3100    7.9170   15.5080 N.am   46  PHE46      -0.1976
     50  CA        19.7570    7.8150   15.6390 C.3    46  PHE46       0.1639
     51  C         20.2080    6.3630   15.5920 C.2    46  PHE46       0.2290
     52  O         19.5430    5.4670   16.1130 O.2    46  PHE46      -0.2864
     53  CB        20.2250    8.4150   16.9670 C.3    46  PHE46       0.0560
     54  CG        20.5200    9.9010   16.9590 C.ar   46  PHE46      -0.0200
     55  CD1       20.0660   10.7390   15.9630 C.ar   46  PHE46      -0.0042
     56  CD2       21.2750   10.4520   17.9880 C.ar   46  PHE46      -0.0042
     57  CE1       20.3430   12.0940   15.9740 C.ar   46  PHE46      -0.0003
     58  CE2       21.5580   11.8030   18.0050 C.ar   46  PHE46      -0.0003
     59  CZ        21.0950   12.6350   17.0010 C.ar   46  PHE46      -0.0000
     60  N         26.2040   14.7540   18.3670 N.3    58  HIS58      -0.1241
     61  CA        25.2410   15.3320   19.3050 C.3    58  HIS58       0.1621
     62  C         25.9090   15.6470   20.6350 C.2    58  HIS58       0.2264
     63  O         25.6420   16.6820   21.2530 O.2    58  HIS58      -0.2867
     64  CB        24.0690   14.3580   19.4830 C.3    58  HIS58       0.0745
     65  CG        22.9520   14.9870   20.2600 C.ar   58  HIS58       0.0817
     66  ND1       22.3710   16.1800   19.8860 N.ar   58  HIS58      -0.2268
     67  CD2       22.3310   14.6030   21.3960 C.ar   58  HIS58       0.1154
     68  CE1       21.4340   16.5020   20.7590 C.ar   58  HIS58       0.1986
     69  NE2       21.3870   15.5600   21.6850 N.ar   58  HIS58      -0.2212
     70  N         27.5530   18.9910   20.3320 N.3    61  LYS61      -0.1231
     71  CA        26.6050   20.0990   20.4140 C.3    61  LYS61       0.1693
     72  C         26.1810   20.3360   21.8560 C.2    61  LYS61       0.2591
     73  O         26.0500   21.4750   22.2960 O.2    61  LYS61      -0.2718
     74  CB        25.3710   19.8090   19.5540 C.3    61  LYS61       0.0285
     75  CG        25.6230   19.9710   18.0620 C.3    61  LYS61       0.0035
     76  CD        24.8310   18.9570   17.2530 C.3    61  LYS61       0.0206
     77  CE        24.2740   19.5740   15.9800 C.3    61  LYS61       0.1093
     78  NZ        23.2030   18.7140   15.3970 N.3    61  LYS61      -0.1314
     79  N         25.9600   19.2480   22.5910 N.am   62  VAL62      -0.1980
     80  CA        25.5210   19.3940   23.9810 C.3    62  VAL62       0.1595
     81  C         26.6010   20.0890   24.7980 C.2    62  VAL62       0.2287
     82  O         26.3410   21.0590   25.5020 O.2    62  VAL62      -0.2864
     83  CB        25.1260   18.0320   24.5660 C.3    62  VAL62       0.0276
     84  CG1       24.7970   18.1110   26.0480 C.3    62  VAL62       0.0022
     85  CG2       23.9100   17.5080   23.8010 C.3    62  VAL62       0.0022
     86  N         26.9950   23.8590   24.1310 N.3    65  ALA65      -0.1231
     87  CA        25.9340   24.6460   24.7440 C.3    65  ALA65       0.1694
     88  C         26.2110   24.8370   26.2330 C.2    65  ALA65       0.2591
     89  O         25.8840   25.8820   26.7900 O.2    65  ALA65      -0.2718
     90  CB        24.5880   23.9660   24.5280 C.3    65  ALA65       0.0304
     91  N         26.8020   23.8140   26.8590 N.am   66  LEU66      -0.1980
     92  CA        27.1800   23.9500   28.2650 C.3    66  LEU66       0.1596
     93  C         28.3570   24.9220   28.4000 C.2    66  LEU66       0.2287
     94  O         28.3840   25.7350   29.3110 O.2    66  LEU66      -0.2864
     95  CB        27.5350   22.6070   28.8880 C.3    66  LEU66       0.0297
     96  CG        26.3750   21.6290   29.1210 C.3    66  LEU66       0.0022
     97  CD1       26.9160   20.2590   29.4990 C.3    66  LEU66       0.0001
     98  CD2       25.4190   22.1700   30.1720 C.3    66  LEU66       0.0001
     99  N         20.9030   30.9410   26.3890 N.3    80  LEU80      -0.1245
    100  CA        20.3620   29.6700   25.8890 C.3    80  LEU80       0.1561
    101  C         18.9760   29.8340   25.2790 C.2    80  LEU80       0.2260
    102  O         18.2380   28.8730   25.0700 O.2    80  LEU80      -0.2867
    103  CB        20.3170   28.6480   27.0290 C.3    80  LEU80       0.0270
    104  CG        21.6790   28.3110   27.6510 C.3    80  LEU80       0.0019
    105  CD1       21.5330   27.3530   28.8190 C.3    80  LEU80       0.0001
    106  CD2       22.5980   27.7510   26.5740 C.3    80  LEU80       0.0001
    107  N         17.8470   27.6290   22.4560 N.3    83  LEU83      -0.1245
    108  CA        17.7530   26.2280   22.8640 C.3    83  LEU83       0.1561
    109  C         16.5310   25.9760   23.7400 C.2    83  LEU83       0.2260
    110  O         15.9520   24.8930   23.6760 O.2    83  LEU83      -0.2867
    111  CB        19.0200   25.7870   23.5980 C.3    83  LEU83       0.0270
    112  CG        20.1840   25.3110   22.7310 C.3    83  LEU83       0.0019
    113  CD1       21.2050   24.5640   23.5800 C.3    83  LEU83       0.0001
    114  CD2       19.7060   24.4310   21.5860 C.3    83  LEU83       0.0001
    115  N         13.5980   25.7440   21.2470 N.3    86  LEU86      -0.1231
    116  CA        13.6710   24.4830   20.5380 C.3    86  LEU86       0.1693
    117  C         13.1660   23.2980   21.3410 C.2    86  LEU86       0.2592
    118  O         12.5110   22.3880   20.8250 O.2    86  LEU86      -0.2718
    119  CB        15.1320   24.2310   20.1190 C.3    86  LEU86       0.0284
    120  CG        15.3940   22.8860   19.4430 C.3    86  LEU86       0.0019
    121  CD1       14.9270   22.9190   17.9960 C.3    86  LEU86       0.0001
    122  CD2       16.8670   22.5180   19.5390 C.3    86  LEU86       0.0001
    123  N         13.4880   23.2620   22.6380 N.am   87  HIS87      -0.1976
    124  CA        13.0540   22.0900   23.4070 C.3    87  HIS87       0.1656
    125  C         11.5790   22.2280   23.7940 C.2    87  HIS87       0.2291
    126  O         10.8700   21.2390   23.8860 O.2    87  HIS87      -0.2864
    127  CB        13.9370   21.9230   24.6500 C.3    87  HIS87       0.0771
    128  CG        15.2640   21.2990   24.3160 C.ar   87  HIS87       0.0820
    129  ND1       16.3130   22.0240   23.8080 N.ar   87  HIS87      -0.2267
    130  CD2       15.7000   20.0240   24.4020 C.ar   87  HIS87       0.1154
    131  CE1       17.3430   21.2070   23.6060 C.ar   87  HIS87       0.1986
    132  NE2       17.0000   19.9840   23.9580 N.ar   87  HIS87      -0.2212
    133  N         11.1350   19.8860   20.1680 N.3    91  LEU91      -0.1245
    134  CA        11.5380   18.5600   20.6330 C.3    91  LEU91       0.1561
    135  C         10.5690   18.0120   21.6740 C.2    91  LEU91       0.2260
    136  O         10.2470   16.8210   21.6520 O.2    91  LEU91      -0.2867
    137  CB        12.9740   18.6230   21.1660 C.3    91  LEU91       0.0270
    138  CG        13.9780   19.1560   20.1230 C.3    91  LEU91       0.0019
    139  CD1       15.3310   19.4280   20.7600 C.3    91  LEU91       0.0001
    140  CD2       14.0930   18.1700   18.9760 C.3    91  LEU91       0.0001
    141  N         10.6910   17.3860   24.9100 N.3    93  VAL93      -0.1245
    142  CA        11.2150   16.3860   25.8330 C.3    93  VAL93       0.1561
    143  C         10.6170   16.5470   27.2230 C.2    93  VAL93       0.2260
    144  O         10.6700   17.6390   27.7900 O.2    93  VAL93      -0.2867
    145  CB        12.7520   16.5230   25.9280 C.3    93  VAL93       0.0252
    146  CG1       13.3130   15.6110   27.0050 C.3    93  VAL93       0.0019
    147  CG2       13.3730   16.2250   24.5690 C.3    93  VAL93       0.0019
    148  N         13.5040   14.1180   32.0930 N.3    97  ASN97      -0.1225
    149  CA        14.6800   13.5180   31.4640 C.3    97  ASN97       0.1785
    150  C         15.9190   14.3940   31.6370 C.2    97  ASN97       0.2597
    151  O         17.0440   13.8890   31.5510 O.2    97  ASN97      -0.2718
    152  CB        14.3990   13.2810   29.9740 C.3    97  ASN97       0.1169
    153  CG        13.3260   12.2090   29.8070 C.2    97  ASN97       0.2627
    154  OD1       13.6070   11.0190   29.9340 O.2    97  ASN97      -0.2716
    155  ND2       12.0950   12.6450   29.5470 N.am   97  ASN97      -0.0877
    156  N         15.7170   15.6830   31.8740 N.am   98  PHE98      -0.1976
    157  CA        16.8590   16.5860   32.0440 C.3    98  PHE98       0.1639
    158  C         17.6580   16.2200   33.2910 C.2    98  PHE98       0.2290
    159  O         18.8830   16.3620   33.3110 O.2    98  PHE98      -0.2864
    160  CB        16.4310   18.0550   32.0880 C.3    98  PHE98       0.0560
    161  CG        15.8940   18.5300   30.7390 C.ar   98  PHE98      -0.0200
    162  CD1       14.5550   18.3800   30.4320 C.ar   98  PHE98      -0.0042
    163  CD2       16.7200   19.1080   29.7960 C.ar   98  PHE98      -0.0042
    164  CE1       14.0520   18.7890   29.2080 C.ar   98  PHE98      -0.0003
    165  CE2       16.2310   19.5130   28.5690 C.ar   98  PHE98      -0.0003
    166  CZ        14.8910   19.3570   28.2710 C.ar   98  PHE98      -0.0000
    167  N         20.0000   13.1190   32.3100 N.3   101  LEU101     -0.1231
    168  CA        21.2210   13.5260   31.6220 C.3   101  LEU101      0.1693
    169  C         22.1560   14.2650   32.5720 C.2   101  LEU101      0.2592
    170  O         23.3770   14.0690   32.5150 O.2   101  LEU101     -0.2718
    171  CB        20.9210   14.4020   30.4030 C.3   101  LEU101      0.0284
    172  CG        22.1510   14.7890   29.5670 C.3   101  LEU101      0.0019
    173  CD1       22.8950   13.5300   29.1430 C.3   101  LEU101      0.0001
    174  CD2       21.7440   15.6370   28.3730 C.3   101  LEU101      0.0001
    175  N         21.6040   15.1240   33.4150 N.am  102  SER102     -0.1952
    176  CA        22.4280   15.8700   34.3640 C.3   102  SER102      0.1924
    177  C         23.2040   14.9260   35.2790 C.2   102  SER102      0.2314
    178  O         24.3880   15.1380   35.5650 O.2   102  SER102     -0.2863
    179  CB        21.5640   16.8110   35.2080 C.3   102  SER102      0.2116
    180  OG        21.1480   17.9260   34.4410 O.3   102  SER102     -0.2180
    181  N         25.9800   13.3820   33.2520 N.3   105  LEU105     -0.1245
    182  CA        27.0690   14.3300   33.0170 C.3   105  LEU105      0.1561
    183  C         27.9530   14.4420   34.2660 C.2   105  LEU105      0.2260
    184  O         29.1780   14.5160   34.1420 O.2   105  LEU105     -0.2867
    185  CB        26.5720   15.7270   32.6440 C.3   105  LEU105      0.0270
    186  CG        26.1630   15.9470   31.1860 C.3   105  LEU105      0.0019
    187  CD1       25.2510   17.1530   31.0390 C.3   105  LEU105      0.0001
    188  CD2       27.3930   16.1140   30.3060 C.3   105  LEU105      0.0001
    189  N         23.9100   22.3020   36.8300 N.3   129  LEU129     -0.1245
    190  CA        23.1400   21.5390   35.8380 C.3   129  LEU129      0.1561
    191  C         21.6440   21.6350   36.1110 C.2   129  LEU129      0.2260
    192  O         20.8230   21.6720   35.1870 O.2   129  LEU129     -0.2867
    193  CB        23.6120   20.0820   35.8200 C.3   129  LEU129      0.0270
    194  CG        25.0340   19.8840   35.2750 C.3   129  LEU129      0.0019
    195  CD1       25.5330   18.4800   35.5690 C.3   129  LEU129      0.0001
    196  CD2       25.0780   20.1890   33.7860 C.3   129  LEU129      0.0001
    197  N         20.6760   24.9560   34.4910 N.3   132  VAL132     -0.1231
    198  CA        20.5990   24.8080   33.0370 C.3   132  VAL132      0.1692
    199  C         19.2990   24.1140   32.6310 C.2   132  VAL132      0.2592
    200  O         18.5840   24.6130   31.7580 O.2   132  VAL132     -0.2718
    201  CB        21.8010   24.0210   32.4850 C.3   132  VAL132      0.0266
    202  CG1       21.5520   23.5210   31.0700 C.3   132  VAL132      0.0020
    203  CG2       23.0580   24.8850   32.5200 C.3   132  VAL132      0.0020
    204  N         19.0060   23.0000   33.2880 N.am  133  SER133     -0.1952
    205  CA        17.7720   22.2480   33.0480 C.3   133  SER133      0.1924
    206  C         16.5330   23.1180   33.2450 C.2   133  SER133      0.2314
    207  O         15.5820   23.0540   32.4600 O.2   133  SER133     -0.2863
    208  CB        17.7150   21.0350   33.9730 C.3   133  SER133      0.2116
    209  OG        18.7690   20.1320   33.6890 O.3   133  SER133     -0.2180
    210  N         16.2640   25.4820   30.2700 N.3   136  LEU136     -0.1245
    211  CA        15.8850   24.7890   29.0400 C.3   136  LEU136      0.1561
    212  C         14.4120   24.4060   29.0370 C.2   136  LEU136      0.2260
    213  O         13.8170   24.1770   27.9790 O.2   136  LEU136     -0.2867
    214  CB        16.7820   23.5610   28.8530 C.3   136  LEU136      0.0270
    215  CG        18.1770   23.8490   28.2920 C.3   136  LEU136      0.0019
    216  CD1       18.8660   22.5590   27.8620 C.3   136  LEU136      0.0001
    217  CD2       18.1090   24.8200   27.1220 C.3   136  LEU136      0.0001
@<TRIPOS>BOND
     1    42    41    2
     2    43    40    1
     3    43    44    1
     4    40    41    1
     5    40    39    1
     6    41    49   am
     7    46    44   ar
     8    46    48   ar
     9    44    45   ar
    10    78    77    1
    11    49    50    1
    12    51    50    1
    13    51    52    2
    14    50    53    1
    15    48    47   ar
    16    55    57   ar
    17    55    54   ar
    18    57    59   ar
    19    77    76    1
    20    45    47   ar
    21    54    53    1
    22    54    56   ar
    23    59    58   ar
    24    76    75    1
    25    56    58   ar
    26   121   120    1
    27    75    74    1
    28    31    30    2
    29    60    61    1
    30    30    29    1
    31   140   138    1
    32    61    64    1
    33    61    62    1
    34   120   122    1
    35   120   119    1
    36    64    65    1
    37    74    71    1
    38    29    32    1
    39    29    28    1
    40    66    65   ar
    41    66    68   ar
    42    19    18    2
    43   119   116    1
    44   138   139    1
    45   138   137    1
    46   133   134    1
    47    32    33    1
    48    65    67   ar
    49    70    71    1
    50    35    33   ar
    51    35    37   ar
    52    71    72    1
    53   116   115    1
    54   116   117    1
    55   134   137    1
    56   134   135    1
    57    62    63    2
    58    28    18   am
    59    68    69   ar
    60    18    17    1
    61   118   117    2
    62    33    34   ar
    63    37    38   ar
    64   117   123   am
    65    67    69   ar
    66   114   112    1
    67   136   135    2
    68    72    73    2
    69    72    79   am
    70    17    16    1
    71    17    20    1
    72    34    36   ar
    73    38    36   ar
    74   107   108    1
    75    79    80    1
    76   123   124    1
    77   112   113    1
    78   112   111    1
    79   108   111    1
    80   108   109    1
    81    20    21    1
    82   124   125    1
    83   124   127    1
    84   131   129   ar
    85   131   132   ar
    86   110   109    2
    87    22    21   ar
    88    22    24   ar
    89   125   126    2
    90    85    83    1
    91   129   128   ar
    92   132   130   ar
    93    80    83    1
    94    80    81    1
    95    21    23   ar
    96    86    87    1
    97   128   130   ar
    98   128   127    1
    99    90    87    1
   100    83    84    1
   101   147   145    1
   102    24    26   ar
   103    87    88    1
   104    81    82    2
   105   141   142    1
   106    12    11    2
   107   102   101    2
   108   101   100    1
   109    23    25   ar
   110    11    10    1
   111   142   145    1
   112   142   143    1
   113   100    99    1
   114   100   103    1
   115    26    25   ar
   116    26    27    1
   117   145   146    1
   118    88    89    2
   119    88    91   am
   120   106   104    1
   121    91    92    1
   122   103   104    1
   123   217   215    1
   124     8     7    1
   125    10    13    1
   126    10     9    1
   127   143   144    2
   128   104   105    1
   129    14    13    1
   130    13    15    1
   131   216   215    1
   132   213   212    2
   133    92    93    1
   134    92    95    1
   135   166   165   ar
   136   166   164   ar
   137   215   214    1
   138   174   172    1
   139    93    94    2
   140   165   163   ar
   141   214   211    1
   142    95    96    1
   143     7     6    1
   144   212   211    1
   145   211   210    1
   146    96    97    1
   147    96    98    1
   148   173   172    1
   149     3     4    2
   150     3     2    1
   151   164   162   ar
   152     5     6    1
   153     5     2    1
   154   155   153   am
   155   172   171    1
   156   163   161   ar
   157   153   154    2
   158   153   152    1
   159     1     2    1
   160   152   149    1
   161   188   186    1
   162   171   168    1
   163   162   161   ar
   164   161   160    1
   165   187   186    1
   166   202   201    1
   167   186   185    1
   168   149   150    1
   169   149   148    1
   170   151   150    2
   171   168   167    1
   172   168   169    1
   173   150   156   am
   174   200   199    2
   175   156   157    1
   176   157   160    1
   177   157   158    1
   178   207   206    2
   179   201   203    1
   180   201   198    1
   181   170   169    2
   182   169   175   am
   183   199   198    1
   184   199   204   am
   185   185   182    1
   186   182   181    1
   187   182   183    1
   188   198   197    1
   189   205   206    1
   190   205   204    1
   191   205   208    1
   192   158   159    2
   193   175   176    1
   194   209   208    1
   195   196   194    1
   196   184   183    2
   197   176   179    1
   198   176   177    1
   199   180   179    1
   200   192   191    2
   201   194   195    1
   202   194   193    1
   203   177   178    2
   204   193   190    1
   205   190   191    1
   206   190   189    1
