@<TRIPOS>MOLECULE
tmp/1c7dA01.pdb
 217 206 0 0 0
SMALL
GASTEIGER

@<TRIPOS>ATOM
      1  N         -3.4460   13.9260   50.5250 N.3   175  MET175     -0.1245
      2  CA        -2.0150   13.6530   50.3750 C.3   175  MET175      0.1570
      3  C         -1.5620   12.5630   51.3330 C.2   175  MET175      0.2261
      4  O         -0.8510   11.6470   50.9190 O.2   175  MET175     -0.2867
      5  CB        -1.2090   14.9370   50.6050 C.3   175  MET175      0.0387
      6  CG         0.2860   14.7560   50.3590 C.3   175  MET175      0.0595
      7  SD         1.2470   16.2280   50.7340 S.3   175  MET175     -0.1393
      8  CE         0.9960   16.4320   52.4860 C.3   175  MET175      0.0692
      9  N          4.6820   11.0880   52.7250 N.3   182  THR182     -0.1218
     10  CA         4.6490   12.4560   53.2280 C.3   182  THR182      0.1862
     11  C          4.3460   12.4900   54.7230 C.2   182  THR182      0.2287
     12  O          4.5660   13.5210   55.3620 O.2   182  THR182     -0.2866
     13  CB         3.5960   13.3150   52.5010 C.3   182  THR182      0.1770
     14  OG1        2.2810   12.7590   52.7030 O.3   182  THR182     -0.2211
     15  CG2        3.8330   13.2890   51.0020 C.3   182  THR182      0.0375
     16  N          6.9430   13.6240   57.6810 N.3   185  TYR185     -0.1227
     17  CA         7.2450   14.9710   58.1360 C.3   185  TYR185      0.1736
     18  C          6.3720   15.4140   59.3060 C.2   185  TYR185      0.2595
     19  O          6.5480   16.4800   59.8880 O.2   185  TYR185     -0.2718
     20  CB         7.1060   15.9410   56.9530 C.3   185  TYR185      0.0548
     21  CG         8.1770   15.6500   55.9090 C.ar  185  TYR185     -0.0200
     22  CD1        9.4580   16.1570   56.0930 C.ar  185  TYR185     -0.0009
     23  CD2        7.9120   14.8710   54.7940 C.ar  185  TYR185     -0.0009
     24  CE1       10.4470   15.8960   55.1650 C.ar  185  TYR185      0.0417
     25  CE2        8.9010   14.6070   53.8540 C.ar  185  TYR185      0.0417
     26  CZ        10.1640   15.1260   54.0550 C.ar  185  TYR185      0.1957
     27  OH        11.1650   14.8910   53.1400 O.3   185  TYR185     -0.2866
     28  N          5.3950   14.5890   59.6670 N.am  186  PHE186     -0.1976
     29  CA         4.4170   14.9700   60.6790 C.3   186  PHE186      0.1639
     30  C          4.2890   13.9260   61.7710 C.2   186  PHE186      0.2290
     31  O          3.1750   13.5250   62.1310 O.2   186  PHE186     -0.2864
     32  CB         3.0440   15.1700   60.0140 C.3   186  PHE186      0.0560
     33  CG         3.0050   16.2930   58.9980 C.ar  186  PHE186     -0.0200
     34  CD1        3.3670   16.0680   57.6790 C.ar  186  PHE186     -0.0042
     35  CD2        2.6020   17.5660   59.3510 C.ar  186  PHE186     -0.0042
     36  CE1        3.3320   17.0870   56.7460 C.ar  186  PHE186     -0.0003
     37  CE2        2.5680   18.5950   58.4280 C.ar  186  PHE186     -0.0003
     38  CZ         2.9310   18.3580   57.1160 C.ar  186  PHE186     -0.0000
     39  N          4.6120   14.1440   64.7950 N.3   188  HIS188     -0.1226
     40  CA         4.0690   14.7680   65.9880 C.3   188  HIS188      0.1752
     41  C          2.5760   15.0670   65.8690 C.2   188  HIS188      0.2596
     42  O          1.9980   15.6350   66.8020 O.2   188  HIS188     -0.2718
     43  CB         4.8210   16.0580   66.3170 C.3   188  HIS188      0.0759
     44  CG         4.8570   17.0760   65.2200 C.ar  188  HIS188      0.0818
     45  ND1        5.3500   16.8100   63.9630 N.ar  188  HIS188     -0.2268
     46  CD2        4.4730   18.3710   65.1810 C.ar  188  HIS188      0.1154
     47  CE1        5.2630   17.8880   63.2060 C.ar  188  HIS188      0.1986
     48  NE2        4.7310   18.8590   63.9260 N.ar  188  HIS188     -0.2212
     49  N          1.9630   14.6960   64.7530 N.am  189  PHE189     -0.1976
     50  CA         0.5600   14.9980   64.5000 C.3   189  PHE189      0.1639
     51  C         -0.3280   13.7810   64.7200 C.2   189  PHE189      0.2290
     52  O          0.0840   12.6560   64.4350 O.2   189  PHE189     -0.2864
     53  CB         0.3680   15.4730   63.0520 C.3   189  PHE189      0.0560
     54  CG         0.5640   16.9580   62.8340 C.ar  189  PHE189     -0.0200
     55  CD1        1.4710   17.6660   63.5980 C.ar  189  PHE189     -0.0042
     56  CD2       -0.1620   17.6340   61.8680 C.ar  189  PHE189     -0.0042
     57  CE1        1.6660   19.0190   63.4160 C.ar  189  PHE189     -0.0003
     58  CE2        0.0350   18.9880   61.6670 C.ar  189  PHE189     -0.0003
     59  CZ         0.9480   19.6810   62.4390 C.ar  189  PHE189     -0.0000
     60  N         -3.4470   23.1310   60.4890 N.3   201  HIS201     -0.1241
     61  CA        -2.3750   23.2550   59.5080 C.3   201  HIS201      0.1621
     62  C         -2.9290   23.5510   58.1200 C.2   201  HIS201      0.2264
     63  O         -2.3900   24.3770   57.3790 O.2   201  HIS201     -0.2867
     64  CB        -1.5440   21.9700   59.4810 C.3   201  HIS201      0.0745
     65  CG        -0.3310   22.1020   58.6130 C.ar  201  HIS201      0.0817
     66  ND1        0.6470   23.0360   58.8800 N.ar  201  HIS201     -0.2268
     67  CD2        0.0580   21.4540   57.4960 C.ar  201  HIS201      0.1154
     68  CE1        1.5920   22.9490   57.9610 C.ar  201  HIS201      0.1986
     69  NE2        1.2630   21.9930   57.1090 N.ar  201  HIS201     -0.2212
     70  N         -3.4720   27.1620   57.7280 N.3   204  LYS204     -0.1231
     71  CA        -2.2420   27.9210   57.4920 C.3   204  LYS204      0.1693
     72  C         -1.7860   27.7940   56.0420 C.2   204  LYS204      0.2591
     73  O         -1.3720   28.7640   55.4210 O.2   204  LYS204     -0.2718
     74  CB        -1.1330   27.4550   58.4340 C.3   204  LYS204      0.0285
     75  CG        -1.4150   27.7710   59.8950 C.3   204  LYS204      0.0035
     76  CD        -0.1360   27.7330   60.7120 C.3   204  LYS204      0.0206
     77  CE        -0.3990   27.2160   62.1150 C.3   204  LYS204      0.1093
     78  NZ         0.8280   26.6100   62.7100 N.3   204  LYS204     -0.1314
     79  N         -1.8380   26.5840   55.4930 N.am  205  VAL205     -0.1980
     80  CA        -1.4050   26.3850   54.1050 C.3   205  VAL205      0.1595
     81  C         -2.2840   27.2060   53.1710 C.2   205  VAL205      0.2287
     82  O         -1.8360   27.9200   52.2740 O.2   205  VAL205     -0.2864
     83  CB        -1.4530   24.8880   53.7580 C.3   205  VAL205      0.0276
     84  CG1       -1.1360   24.6280   52.2920 C.3   205  VAL205      0.0022
     85  CG2       -0.4850   24.1110   54.6440 C.3   205  VAL205      0.0022
     86  N         -1.6140   30.8860   53.2780 N.3   208  ALA208     -0.1231
     87  CA        -0.3850   31.2580   52.5760 C.3   208  ALA208      0.1694
     88  C         -0.6460   31.3420   51.0760 C.2   208  ALA208      0.2591
     89  O         -0.1310   32.2170   50.3950 O.2   208  ALA208     -0.2718
     90  CB         0.7180   30.2650   52.8960 C.3   208  ALA208      0.0304
     91  N         -1.4680   30.4180   50.5700 N.am  209  LEU209     -0.1980
     92  CA        -1.8110   30.4410   49.1490 C.3   209  LEU209      0.1596
     93  C         -2.6690   31.6570   48.8400 C.2   209  LEU209      0.2287
     94  O         -2.5320   32.2820   47.7920 O.2   209  LEU209     -0.2864
     95  CB        -2.5280   29.1550   48.7430 C.3   209  LEU209      0.0297
     96  CG        -1.6670   27.8870   48.7370 C.3   209  LEU209      0.0022
     97  CD1       -2.5490   26.6580   48.5700 C.3   209  LEU209      0.0001
     98  CD2       -0.6150   27.9370   47.6370 C.3   209  LEU209      0.0001
     99  N          6.4100   35.2690   50.0390 N.3   223  LEU223     -0.1245
    100  CA         6.6750   33.9470   50.5710 C.3   223  LEU223      0.1561
    101  C          8.0860   33.7650   51.1180 C.2   223  LEU223      0.2260
    102  O          8.4930   32.6320   51.4140 O.2   223  LEU223     -0.2867
    103  CB         6.4530   32.9080   49.4630 C.3   223  LEU223      0.0270
    104  CG         5.0310   32.7340   48.9350 C.3   223  LEU223      0.0019
    105  CD1        4.9690   31.5090   48.0280 C.3   223  LEU223      0.0001
    106  CD2        4.0400   32.6080   50.0780 C.3   223  LEU223      0.0001
    107  N          8.4570   31.9410   54.4330 N.3   226  LEU226     -0.1245
    108  CA         8.1020   30.5330   54.2880 C.3   226  LEU226      0.1561
    109  C          9.1840   29.7670   53.5350 C.2   226  LEU226      0.2260
    110  O          9.4180   28.5870   53.7990 O.2   226  LEU226     -0.2867
    111  CB         6.7690   30.3940   53.5500 C.3   226  LEU226      0.0270
    112  CG         5.5030   30.4960   54.4010 C.3   226  LEU226      0.0019
    113  CD1        4.2780   30.1920   53.5540 C.3   226  LEU226      0.0001
    114  CD2        5.5950   29.5620   55.5960 C.3   226  LEU226      0.0001
    115  N         11.8260   29.0560   56.1260 N.3   229  LEU229     -0.1231
    116  CA        11.4290   28.0340   57.0800 C.3   229  LEU229      0.1693
    117  C         11.5030   26.6420   56.4880 C.2   229  LEU229      0.2592
    118  O         11.9430   25.6720   57.1060 O.2   229  LEU229     -0.2718
    119  CB        10.0100   28.3190   57.5900 C.3   229  LEU229      0.0284
    120  CG         9.3960   27.2220   58.4610 C.3   229  LEU229      0.0019
    121  CD1        9.9530   27.2790   59.8770 C.3   229  LEU229      0.0001
    122  CD2        7.8800   27.3320   58.4720 C.3   229  LEU229      0.0001
    123  N         11.0600   26.4870   55.2320 N.am  230  HIS230     -0.1976
    124  CA        11.1090   25.1270   54.6900 C.3   230  HIS230      0.1656
    125  C         12.5420   24.7100   54.3610 C.2   230  HIS230      0.2291
    126  O         12.8880   23.5500   54.5180 O.2   230  HIS230     -0.2864
    127  CB        10.2230   25.0150   53.4420 C.3   230  HIS230      0.0771
    128  CG         8.7710   24.9450   53.8280 C.ar  230  HIS230      0.0820
    129  ND1        8.0420   26.0570   54.1690 N.ar  230  HIS230     -0.2267
    130  CD2        7.9450   23.8870   53.9440 C.ar  230  HIS230      0.1154
    131  CE1        6.8090   25.6840   54.4730 C.ar  230  HIS230      0.1986
    132  NE2        6.7130   24.3710   54.3420 N.ar  230  HIS230     -0.2212
    133  N         12.4780   23.1150   58.4350 N.3   234  LEU234     -0.1245
    134  CA        11.6800   21.9180   58.1590 C.3   234  LEU234      0.1561
    135  C         12.4220   20.9510   57.2370 C.2   234  LEU234      0.2260
    136  O         12.3700   19.7510   57.4570 O.2   234  LEU234     -0.2867
    137  CB        10.3390   22.3340   57.5460 C.3   234  LEU234      0.0270
    138  CG         9.5830   23.4350   58.3090 C.3   234  LEU234      0.0019
    139  CD1        8.3150   23.8230   57.5630 C.3   234  LEU234      0.0001
    140  CD2        9.2690   22.9760   59.7230 C.3   234  LEU234      0.0001
    141  N         11.9660   19.9200   54.0920 N.3   236  VAL236     -0.1245
    142  CA        11.1230   19.0210   53.3210 C.3   236  VAL236      0.1561
    143  C         11.7340   18.7320   51.9590 C.2   236  VAL236      0.2260
    144  O         12.0620   19.6690   51.2280 O.2   236  VAL236     -0.2867
    145  CB         9.7280   19.6550   53.1060 C.3   236  VAL236      0.0252
    146  CG1        8.8720   18.7870   52.1960 C.3   236  VAL236      0.0019
    147  CG2        9.0520   19.8640   54.4550 C.3   236  VAL236      0.0019
    148  N          8.1710   16.5570   47.4570 N.3   240  ASN240     -0.1225
    149  CA         6.8790   16.4650   48.1350 C.3   240  ASN240      0.1785
    150  C          5.9400   17.6090   47.7810 C.2   240  ASN240      0.2597
    151  O          4.7160   17.5110   47.9330 O.2   240  ASN240     -0.2718
    152  CB         7.1040   16.4410   49.6500 C.3   240  ASN240      0.1169
    153  CG         7.7790   15.1380   50.0490 C.2   240  ASN240      0.2627
    154  OD1        7.1190   14.1020   50.1020 O.2   240  ASN240     -0.2716
    155  ND2        9.0750   15.2170   50.3030 N.am  240  ASN240     -0.0877
    156  N          6.4990   18.7240   47.3330 N.am  241  PHE241     -0.1976
    157  CA         5.6520   19.8590   46.9680 C.3   241  PHE241      0.1639
    158  C          4.7710   19.5170   45.7690 C.2   241  PHE241      0.2290
    159  O          3.6440   20.0070   45.6850 O.2   241  PHE241     -0.2864
    160  CB         6.4930   21.1050   46.6930 C.3   241  PHE241      0.0560
    161  CG         7.1520   21.6280   47.9680 C.ar  241  PHE241     -0.0200
    162  CD1        8.3340   21.0750   48.4350 C.ar  241  PHE241     -0.0042
    163  CD2        6.5700   22.6580   48.6840 C.ar  241  PHE241     -0.0042
    164  CE1        8.9260   21.5490   49.5940 C.ar  241  PHE241     -0.0003
    165  CE2        7.1530   23.1360   49.8430 C.ar  241  PHE241     -0.0003
    166  CZ         8.3280   22.5740   50.3060 C.ar  241  PHE241     -0.0000
    167  N          1.6940   17.5840   47.1610 N.3   244  LEU244     -0.1231
    168  CA         0.6250   18.3900   47.7710 C.3   244  LEU244      0.1693
    169  C         -0.1140   19.1780   46.6950 C.2   244  LEU244      0.2592
    170  O         -1.3290   19.3690   46.7450 O.2   244  LEU244     -0.2718
    171  CB         1.1740   19.3440   48.8330 C.3   244  LEU244      0.0284
    172  CG         0.1410   20.2660   49.4910 C.3   244  LEU244      0.0019
    173  CD1       -1.0200   19.4390   50.0270 C.3   244  LEU244      0.0001
    174  CD2        0.7800   21.0890   50.5950 C.3   244  LEU244      0.0001
    175  N          0.6390   19.6570   45.7070 N.am  245  SER245     -0.1952
    176  CA         0.0790   20.4560   44.6240 C.3   245  SER245      0.1924
    177  C         -0.9820   19.6830   43.8510 C.2   245  SER245      0.2314
    178  O         -2.0330   20.2290   43.4970 O.2   245  SER245     -0.2863
    179  CB         1.2100   20.8950   43.6870 C.3   245  SER245      0.2116
    180  OG         1.9510   21.9550   44.2840 O.3   245  SER245     -0.2180
    181  N         -4.0530   19.4060   46.0890 N.3   248  LEU248     -0.1245
    182  CA        -4.7640   20.6750   46.0600 C.3   248  LEU248      0.1561
    183  C         -5.5980   20.7860   44.7820 C.2   248  LEU248      0.2260
    184  O         -6.7540   21.2080   44.8470 O.2   248  LEU248     -0.2867
    185  CB        -3.8060   21.8640   46.1430 C.3   248  LEU248      0.0270
    186  CG        -3.2650   22.2170   47.5330 C.3   248  LEU248      0.0019
    187  CD1       -2.0990   23.1910   47.4010 C.3   248  LEU248      0.0001
    188  CD2       -4.3490   22.7970   48.4370 C.3   248  LEU248      0.0001
    189  N          0.5740   26.5340   40.9590 N.3   272  LEU272     -0.1245
    190  CA         1.1220   25.7990   42.1120 C.3   272  LEU272      0.1561
    191  C          2.5620   25.3720   41.8630 C.2   272  LEU272      0.2260
    192  O          3.3870   25.3060   42.7810 O.2   272  LEU272     -0.2867
    193  CB         0.2210   24.6160   42.4590 C.3   272  LEU272      0.0270
    194  CG        -1.1750   25.0290   42.9570 C.3   272  LEU272      0.0019
    195  CD1       -2.1360   23.8570   42.9300 C.3   272  LEU272      0.0001
    196  CD2       -1.0650   25.6360   44.3490 C.3   272  LEU272      0.0001
    197  N          4.5510   28.4350   42.8860 N.3   275  VAL275     -0.1231
    198  CA         4.5780   28.4860   44.3420 C.3   275  VAL275      0.1692
    199  C          5.6050   27.5030   44.8930 C.2   275  VAL275      0.2592
    200  O          6.4010   27.8430   45.7750 O.2   275  VAL275     -0.2718
    201  CB         3.1880   28.1920   44.9360 C.3   275  VAL275      0.0266
    202  CG1        3.2890   27.9350   46.4290 C.3   275  VAL275      0.0020
    203  CG2        2.2450   29.3590   44.6600 C.3   275  VAL275      0.0020
    204  N          5.5730   26.2830   44.3700 N.am  276  SER276     -0.1952
    205  CA         6.5160   25.2370   44.7430 C.3   276  SER276      0.1924
    206  C          7.9550   25.6360   44.4360 C.2   276  SER276      0.2314
    207  O          8.8590   25.3860   45.2340 O.2   276  SER276     -0.2863
    208  CB         6.1510   23.9320   44.0210 C.3   276  SER276      0.2116
    209  OG         4.9540   23.4160   44.6020 O.3   276  SER276     -0.2180
    210  N          9.0650   28.2200   47.0410 N.3   279  LEU279     -0.1245
    211  CA         9.2360   27.6420   48.3670 C.3   279  LEU279      0.1561
    212  C         10.5060   26.8030   48.4650 C.2   279  LEU279      0.2260
    213  O         11.0130   26.5650   49.5660 O.2   279  LEU279     -0.2867
    214  CB         8.0230   26.7820   48.7530 C.3   279  LEU279      0.0270
    215  CG         6.7360   27.5640   49.0380 C.3   279  LEU279      0.0019
    216  CD1        5.6550   26.6510   49.5900 C.3   279  LEU279      0.0001
    217  CD2        7.0280   28.7150   49.9860 C.3   279  LEU279      0.0001
@<TRIPOS>BOND
     1   189   190    1
     2   191   190    1
     3   191   192    2
     4   190   193    1
     5   193   194    1
     6   197   198    1
     7   195   194    1
     8   194   196    1
     9   178   177    2
    10   179   180    1
    11   179   176    1
    12   177   176    1
    13   208   209    1
    14   208   205    1
    15   198   199    1
    16   198   201    1
    17   204   205    1
    18   204   199   am
    19   206   205    1
    20   206   207    2
    21   176   175    1
    22   203   201    1
    23   183   184    2
    24   183   182    1
    25   199   200    2
    26   201   202    1
    27   159   158    2
    28   175   169   am
    29   158   157    1
    30   182   181    1
    31   182   185    1
    32   185   186    1
    33   160   157    1
    34   160   161    1
    35   169   170    2
    36   169   168    1
    37   157   156    1
    38   210   211    1
    39   167   168    1
    40   156   150   am
    41   187   186    1
    42   148   149    1
    43   186   188    1
    44    98    96    1
    45   168   171    1
    46   150   151    2
    47   150   149    1
    48    94    93    2
    49   161   162   ar
    50   161   163   ar
    51   105   104    1
    52   149   152    1
    53   211   212    1
    54   211   214    1
    55   162   164   ar
    56   212   213    2
    57    97    96    1
    58   163   165   ar
    59    96    95    1
    60    95    92    1
    61   214   215    1
    62   171   172    1
    63    93    92    1
    64   104   103    1
    65   104   106    1
    66   215   216    1
    67   215   217    1
    68    92    91    1
    69   103   100    1
    70   172   173    1
    71   172   174    1
    72   164   166   ar
    73   152   153    1
    74   165   166   ar
    75    99   100    1
    76   153   154    2
    77   153   155   am
    78     6     5    1
    79     6     7    1
    80     2     1    1
    81     2     5    1
    82     2     3    1
    83    89    88    2
    84    91    88   am
    85   100   101    1
    86     7     8    1
    87     4     3    2
    88    15    13    1
    89    88    87    1
    90   101   102    2
    91   144   143    2
    92   143   142    1
    93   146   145    1
    94    82    81    2
    95    84    83    1
    96    13    14    1
    97    13    10    1
    98    87    90    1
    99    87    86    1
   100     9    10    1
   101   145   142    1
   102   145   147    1
   103    27    26    1
   104    81    80    1
   105    10    11    1
   106   142   141    1
   107   127   128    1
   108   127   124    1
   109   109   110    2
   110   109   108    1
   111   111   108    1
   112   111   112    1
   113   113   112    1
   114    83    80    1
   115    83    85    1
   116   128   130   ar
   117   128   129   ar
   118    25    26   ar
   119    25    23   ar
   120   130   132   ar
   121    26    24   ar
   122    80    79    1
   123   129   131   ar
   124   108   107    1
   125   132   131   ar
   126   125   126    2
   127   125   124    1
   128   112   114    1
   129   124   123    1
   130    11    12    2
   131    23    21   ar
   132    24    22   ar
   133   123   117   am
   134    73    72    2
   135    79    72   am
   136    21    22   ar
   137    21    20    1
   138    72    71    1
   139   115   116    1
   140   117   116    1
   141   117   118    2
   142    36    38   ar
   143    36    34   ar
   144    20    17    1
   145   116   119    1
   146    69    67   ar
   147    69    68   ar
   148    38    37   ar
   149   135   136    2
   150   135   134    1
   151    63    62    2
   152    71    70    1
   153    71    74    1
   154    67    65   ar
   155   137   134    1
   156   137   138    1
   157   139   138    1
   158   119   120    1
   159    34    33   ar
   160    16    17    1
   161    68    66   ar
   162    62    61    1
   163    17    18    1
   164   134   133    1
   165   138   140    1
   166    37    35   ar
   167    74    75    1
   168   120   122    1
   169   120   121    1
   170    65    66   ar
   171    65    64    1
   172    33    35   ar
   173    33    32    1
   174    18    28   am
   175    18    19    2
   176    64    61    1
   177    61    60    1
   178    28    29    1
   179    75    76    1
   180    32    29    1
   181    29    30    1
   182    76    77    1
   183    58    56   ar
   184    58    59   ar
   185    30    31    2
   186    56    54   ar
   187    77    78    1
   188    59    57   ar
   189    54    53    1
   190    54    55   ar
   191    53    50    1
   192    47    48   ar
   193    47    45   ar
   194    57    55   ar
   195    48    46   ar
   196    45    44   ar
   197    52    51    2
   198    50    51    1
   199    50    49    1
   200    49    41   am
   201    39    40    1
   202    46    44   ar
   203    44    43    1
   204    41    40    1
   205    41    42    2
   206    40    43    1
