@<TRIPOS>MOLECULE
tmp/1c7nB00.pdb
 127 119 0 0 0
SMALL
GASTEIGER

@<TRIPOS>ATOM
      1  N          0.5610    3.6110   71.2780 N.3    39  ALA39      -0.1245
      2  CA        -0.0440    2.2960   71.4360 C.3    39  ALA39       0.1562
      3  C          0.6360    1.0700   70.8310 C.2    39  ALA39       0.2260
      4  O          0.1840    0.5290   69.8210 O.2    39  ALA39      -0.2867
      5  CB        -1.5120    2.3440   70.9820 C.3    39  ALA39       0.0290
      6  N         -1.1710   -1.2170   56.9230 N.3    97  GLY97      -0.1210
      7  CA        -1.6240   -0.4440   58.0660 C.3    97  GLY97       0.1956
      8  C         -3.0590    0.0200   57.8940 C.2    97  GLY97       0.2612
      9  O         -3.5360    0.2130   56.7710 O.2    97  GLY97      -0.2717
     10  N         -3.7590    0.2000   59.0070 N.am   98  VAL98      -0.1965
     11  CA        -5.1450    0.6540   58.9590 C.3    98  VAL98       0.1727
     12  C         -5.2600    2.1400   58.6270 C.2    98  VAL98       0.2616
     13  O         -6.1920    2.5620   57.9410 O.2    98  VAL98      -0.2715
     14  CB        -5.8660    0.3650   60.2940 C.3    98  VAL98       0.0290
     15  CG1       -7.2300    1.0340   60.3150 C.3    98  VAL98       0.0023
     16  CG2       -6.0160   -1.1340   60.4670 C.3    98  VAL98       0.0023
     17  N         -4.3170    2.9470   59.1000 N.am   99  VAL99      -0.1964
     18  CA        -4.3970    4.3660   58.7940 C.3    99  VAL99       0.1712
     19  C         -4.3760    4.5960   57.2790 C.2    99  VAL99       0.2458
     20  O         -5.1980    5.3440   56.7500 O.2    99  VAL99      -0.2730
     21  CB        -3.2700    5.1490   59.4910 C.3    99  VAL99       0.0289
     22  CG1       -3.2990    6.6170   59.0640 C.3    99  VAL99       0.0023
     23  CG2       -3.4600    5.0510   61.0000 C.3    99  VAL99       0.0023
     24  N         -3.4400    3.9590   56.5580 N.am  100  PRO100     -0.2727
     25  CA        -3.4200    4.1660   55.1060 C.3   100  PRO100      0.1402
     26  C         -4.7430    3.7290   54.4740 C.2   100  PRO100      0.2269
     27  O         -5.2040    4.3220   53.4960 O.2   100  PRO100     -0.2865
     28  CB        -2.2460    3.3060   54.6530 C.3   100  PRO100      0.0296
     29  CG        -1.3080    3.3960   55.8180 C.3   100  PRO100      0.0237
     30  CD        -2.2460    3.2150   56.9980 C.3   100  PRO100      0.0939
     31  N         -9.2770    8.5350   68.2550 N.3   123  TYR123     -0.1241
     32  CA        -7.9600    8.2940   67.6680 C.3   123  TYR123      0.1605
     33  C         -7.6590    9.4380   66.6880 C.2   123  TYR123      0.2264
     34  O         -8.2980    9.5530   65.6410 O.2   123  TYR123     -0.2867
     35  CB        -8.0350    6.9340   66.9560 C.3   123  TYR123      0.0534
     36  CG        -6.7910    6.4540   66.2570 C.ar  123  TYR123     -0.0201
     37  CD1       -5.6200    6.1810   66.9630 C.ar  123  TYR123     -0.0009
     38  CD2       -6.8030    6.2310   64.8830 C.ar  123  TYR123     -0.0009
     39  CE1       -4.4840    5.6930   66.3040 C.ar  123  TYR123      0.0417
     40  CE2       -5.6890    5.7480   64.2230 C.ar  123  TYR123      0.0417
     41  CZ        -4.5350    5.4790   64.9300 C.ar  123  TYR123      0.1957
     42  OH        -3.4470    4.9920   64.2480 O.3   123  TYR123     -0.2866
     43  N         -7.6430    9.9450   62.6650 N.3   126  PHE126     -0.1241
     44  CA        -8.9240   10.0730   61.9710 C.3   126  PHE126      0.1605
     45  C         -9.0720   11.5070   61.4750 C.2   126  PHE126      0.2264
     46  O         -9.4180   11.7450   60.3140 O.2   126  PHE126     -0.2867
     47  CB       -10.0940    9.7390   62.9060 C.3   126  PHE126      0.0534
     48  CG       -10.4080    8.2680   63.0030 C.ar  126  PHE126     -0.0203
     49  CD1      -11.4970    7.8320   63.7470 C.ar  126  PHE126     -0.0042
     50  CD2       -9.6210    7.3190   62.3540 C.ar  126  PHE126     -0.0042
     51  CE1      -11.8020    6.4750   63.8460 C.ar  126  PHE126     -0.0003
     52  CE2       -9.9180    5.9580   62.4470 C.ar  126  PHE126     -0.0003
     53  CZ       -11.0110    5.5380   63.1950 C.ar  126  PHE126     -0.0000
     54  N        -15.0740    3.8640   65.3490 N.3   171  CYS171     -0.1235
     55  CA       -13.9500    3.2050   66.0170 C.3   171  CYS171      0.1677
     56  C        -14.5440    2.2420   67.0450 C.2   171  CYS171      0.2270
     57  O        -15.1930    2.6680   67.9990 O.2   171  CYS171     -0.2867
     58  CB       -13.0550    4.2500   66.7010 C.3   171  CYS171      0.0956
     59  SG       -11.4520    3.6250   67.2870 S.3   171  CYS171     -0.0801
     60  N        -11.0490    3.9690   70.8300 N.3   175  ASN175     -0.1240
     61  CA        -9.8070    4.5520   71.3460 C.3   175  ASN175      0.1653
     62  C        -10.0810    6.0580   71.3280 C.2   175  ASN175      0.2266
     63  O        -10.5080    6.5930   70.3070 O.2   175  ASN175     -0.2867
     64  CB        -8.6510    4.1810   70.3940 C.3   175  ASN175      0.1155
     65  CG        -7.3420    4.9160   70.7050 C.2   175  ASN175      0.2627
     66  OD1       -7.1510    5.4620   71.7910 O.2   175  ASN175     -0.2716
     67  ND2       -6.4260    4.9100   69.7400 N.am  175  ASN175     -0.0877
     68  N        -13.5120    0.8990   62.0050 N.3   203  ASP203     -0.1239
     69  CA       -12.1370    0.5590   62.3570 C.3   203  ASP203      0.1674
     70  C        -12.1840   -0.3190   63.6050 C.2   203  ASP203      0.2266
     71  O        -12.3570    0.1810   64.7190 O.2   203  ASP203     -0.2867
     72  CB       -11.3530    1.8490   62.6300 C.3   203  ASP203      0.1410
     73  CG        -9.8900    1.5960   62.9620 C.2   203  ASP203      0.3668
     74  OD1       -9.1150    2.5760   62.9900 O.co2 203  ASP203     -0.2456
     75  OD2       -9.5160    0.4310   63.2030 O.co2 203  ASP203     -0.2456
     76  N         -9.6660   -2.4390   64.7690 N.3   205  ILE205     -0.1231
     77  CA        -8.3210   -2.9170   65.0360 C.3   205  ILE205      0.1692
     78  C         -8.1760   -3.4650   66.4630 C.2   205  ILE205      0.2592
     79  O         -7.3890   -4.3760   66.7040 O.2   205  ILE205     -0.2718
     80  CB        -7.2870   -1.7810   64.8070 C.3   205  ILE205      0.0266
     81  CG1       -5.8630   -2.3300   64.8670 C.3   205  ILE205      0.0019
     82  CG2       -7.4480   -0.7040   65.8580 C.3   205  ILE205      0.0020
     83  CD1       -5.3640   -2.8470   63.5530 C.3   205  ILE205      0.0001
     84  N         -8.9470   -2.9310   67.4040 N.am  206  HIS206     -0.1976
     85  CA        -8.8600   -3.4010   68.7910 C.3   206  HIS206      0.1656
     86  C         -9.8220   -4.5360   69.1650 C.2   206  HIS206      0.2291
     87  O         -9.8940   -4.9080   70.3400 O.2   206  HIS206     -0.2864
     88  CB        -9.1280   -2.2520   69.7720 C.3   206  HIS206      0.0771
     89  CG        -8.1070   -1.1600   69.7400 C.ar  206  HIS206      0.0820
     90  ND1       -8.2130   -0.0660   68.9100 N.ar  206  HIS206     -0.2267
     91  CD2       -6.9700   -0.9840   70.4540 C.ar  206  HIS206      0.1154
     92  CE1       -7.1890    0.7420   69.1190 C.ar  206  HIS206      0.1986
     93  NE2       -6.4200    0.2090   70.0500 N.ar  206  HIS206     -0.2212
     94  N         -1.9640   -6.3820   64.2460 N.3   237  SER237     -0.1202
     95  CA        -0.9640   -5.5130   64.8680 C.3   237  SER237      0.2020
     96  C         -1.1700   -5.0860   66.3200 C.2   237  SER237      0.2618
     97  O         -0.2630   -5.2310   67.1420 O.2   237  SER237     -0.2717
     98  CB        -0.7480   -4.2730   63.9900 C.3   237  SER237      0.2103
     99  OG        -1.9530   -3.5540   63.7990 O.3   237  SER237     -0.2182
    100  N         -2.3370   -4.5500   66.6480 N.am  238  LYS238     -0.1979
    101  CA        -2.5840   -4.1250   68.0240 C.3   238  LYS238      0.1596
    102  C         -2.6650   -5.3460   68.9310 C.2   238  LYS238      0.2287
    103  O         -2.1000   -5.3590   70.0270 O.2   238  LYS238     -0.2864
    104  CB        -3.8820   -3.3160   68.1050 C.3   238  LYS238      0.0298
    105  CG        -3.7450   -1.9640   68.7980 C.3   238  LYS238      0.0038
    106  CD        -2.4740   -1.2410   68.3710 C.3   238  LYS238      0.0206
    107  CE        -2.5870    0.2530   68.5760 C.3   238  LYS238      0.1093
    108  NZ        -3.6010    0.7440   67.6420 N.3   238  LYS238     -0.1314
    109  N          2.7780   -3.8230   65.0800 N.3   243  ALA243     -0.1245
    110  CA         2.5370   -2.6540   64.2490 C.3   243  ALA243      0.1562
    111  C          3.7450   -2.4680   63.3370 C.2   243  ALA243      0.2260
    112  O          3.6950   -1.7080   62.3690 O.2   243  ALA243     -0.2867
    113  CB         2.3590   -1.4200   65.1180 C.3   243  ALA243      0.0290
    114  N         -2.4040   -5.3850   57.1360 N.3   248  SER248     -0.1217
    115  CA        -3.7810   -5.2100   57.5830 C.3   248  SER248      0.1889
    116  C         -4.7430   -5.9990   56.7030 C.2   248  SER248      0.2288
    117  O         -4.4720   -6.2250   55.5240 O.2   248  SER248     -0.2866
    118  CB        -4.1680   -3.7300   57.5370 C.3   248  SER248      0.2089
    119  OG        -3.2290   -2.9330   58.2330 O.3   248  SER248     -0.2183
    120  N         -5.7920    0.8420   76.4710 N.3   327  LEU327     -0.1245
    121  CA        -5.5880    2.2690   76.6650 C.3   327  LEU327      0.1561
    122  C         -6.6530    2.8050   77.6280 C.2   327  LEU327      0.2260
    123  O         -7.8230    2.9240   77.2680 O.2   327  LEU327     -0.2867
    124  CB        -5.6820    2.9730   75.3100 C.3   327  LEU327      0.0270
    125  CG        -4.8080    2.3240   74.2210 C.3   327  LEU327      0.0019
    126  CD1       -5.1570    2.8840   72.8470 C.3   327  LEU327      0.0001
    127  CD2       -3.3470    2.5660   74.5340 C.3   327  LEU327      0.0001
@<TRIPOS>BOND
     1    27    26    2
     2    26    25    1
     3    28    25    1
     4    28    29    1
     5    25    24    1
     6   117   116    2
     7    29    30    1
     8    24    30    1
     9    24    19   am
    10   116   115    1
    11    20    19    2
    12     9     8    2
    13     6     7    1
    14   114   115    1
    15    19    18    1
    16   118   115    1
    17   118   119    1
    18     8     7    1
    19     8    10   am
    20    13    12    2
    21    12    11    1
    22    12    17   am
    23    18    17    1
    24    18    21    1
    25    11    10    1
    26    11    14    1
    27    22    21    1
    28    21    23    1
    29    14    15    1
    30    14    16    1
    31    46    45    2
    32    45    44    1
    33    44    43    1
    34    44    47    1
    35    68    69    1
    36    50    52   ar
    37    50    48   ar
    38    69    72    1
    39    69    70    1
    40   112   111    2
    41    52    53   ar
    42    72    73    1
    43    47    48    1
    44    73    74   ar
    45    73    75   ar
    46    48    49   ar
    47    53    51   ar
    48   111   110    1
    49    83    81    1
    50    70    71    2
    51    49    51   ar
    52    99    98    1
    53    98    95    1
    54    40    38   ar
    55    40    41   ar
    56    94    95    1
    57    42    41    1
    58   110   109    1
    59   110   113    1
    60    76    77    1
    61    80    81    1
    62    80    77    1
    63    80    82    1
    64    95    96    1
    65    38    36   ar
    66    41    39   ar
    67    77    78    1
    68    54    55    1
    69    34    33    2
    70    55    58    1
    71    55    56    1
    72    36    35    1
    73    36    37   ar
    74    39    37   ar
    75    96   100   am
    76    96    97    2
    77    78    79    2
    78    78    84   am
    79   100   101    1
    80    33    32    1
    81    58    59    1
    82    35    32    1
    83    56    57    2
    84    84    85    1
    85   108   107    1
    86    32    31    1
    87   101   104    1
    88   101   102    1
    89   104   105    1
    90   106   107    1
    91   106   105    1
    92    85    86    1
    93    85    88    1
    94    90    92   ar
    95    90    89   ar
    96   102   103    2
    97    92    93   ar
    98    86    87    2
    99    67    65   am
   100    89    88    1
   101    89    91   ar
   102     4     3    2
   103    93    91   ar
   104    63    62    2
   105    64    65    1
   106    64    61    1
   107    65    66    2
   108    60    61    1
   109     3     2    1
   110     5     2    1
   111     1     2    1
   112    62    61    1
   113   126   125    1
   114   125   127    1
   115   125   124    1
   116   124   121    1
   117   120   121    1
   118   121   122    1
   119   123   122    2
