@<TRIPOS>MOLECULE
tmp/1c7oB00.pdb
 184 174 0 0 0
SMALL
GASTEIGER

@<TRIPOS>ATOM
      1  N         13.4230    6.5510   -5.0970 N.3    17  LEU17      -0.1245
      2  CA        13.9920    7.8580   -4.8170 C.3    17  LEU17       0.1561
      3  C         14.3830    8.5550   -6.1100 C.2    17  LEU17       0.2260
      4  O         14.1620    9.7650   -6.2730 O.2    17  LEU17      -0.2867
      5  CB        15.2110    7.7200   -3.9190 C.3    17  LEU17       0.0270
      6  CG        14.9300    8.0830   -2.4630 C.3    17  LEU17       0.0019
      7  CD1       13.7300    7.3010   -1.9220 C.3    17  LEU17       0.0001
      8  CD2       16.1850    7.8010   -1.6570 C.3    17  LEU17       0.0001
      9  N         20.4960    8.5710  -10.0500 N.3    38  VAL38      -0.1231
     10  CA        20.8240    7.7260   -8.8950 C.3    38  VAL38       0.1692
     11  C         21.3560    6.3520   -9.3060 C.2    38  VAL38       0.2591
     12  O         20.9110    5.7680  -10.2920 O.2    38  VAL38      -0.2718
     13  CB        19.5940    7.5360   -7.9650 C.3    38  VAL38       0.0266
     14  CG1       19.8710    6.4580   -6.9330 C.3    38  VAL38       0.0020
     15  CG2       19.2680    8.8480   -7.2710 C.3    38  VAL38       0.0020
     16  N         22.3000    5.8400   -8.5240 N.am   39  ALA39      -0.1980
     17  CA        22.9360    4.5600   -8.8080 C.3    39  ALA39       0.1597
     18  C         22.2010    3.2710   -8.4420 C.2    39  ALA39       0.2287
     19  O         22.5880    2.5530   -7.5140 O.2    39  ALA39      -0.2864
     20  CB        24.3180    4.5340   -8.2000 C.3    39  ALA39       0.0319
     21  N         24.0100   -0.4150    5.2790 N.3    97  GLY97      -0.1210
     22  CA        24.5260    0.1650    4.0550 C.3    97  GLY97       0.1956
     23  C         25.9600    0.6150    4.2290 C.2    97  GLY97       0.2612
     24  O         26.4540    0.7500    5.3570 O.2    97  GLY97      -0.2717
     25  N         26.6300    0.8630    3.1130 N.am   98  VAL98      -0.1965
     26  CA        28.0110    1.2900    3.1510 C.3    98  VAL98       0.1727
     27  C         28.2140    2.7020    3.7050 C.2    98  VAL98       0.2616
     28  O         29.1290    2.9220    4.5120 O.2    98  VAL98      -0.2715
     29  CB        28.6400    1.1800    1.7570 C.3    98  VAL98       0.0290
     30  CG1       30.0250    1.8490    1.7320 C.3    98  VAL98       0.0023
     31  CG2       28.7490   -0.2900    1.3850 C.3    98  VAL98       0.0023
     32  N         27.3800    3.6510    3.2820 N.am   99  VAL99      -0.1964
     33  CA        27.5120    5.0280    3.7510 C.3    99  VAL99       0.1712
     34  C         27.4560    5.1010    5.2740 C.2    99  VAL99       0.2458
     35  O         28.2990    5.7480    5.9030 O.2    99  VAL99      -0.2730
     36  CB        26.4220    5.9470    3.1490 C.3    99  VAL99       0.0289
     37  CG1       26.4020    7.2830    3.8820 C.3    99  VAL99       0.0023
     38  CG2       26.7030    6.1810    1.6720 C.3    99  VAL99       0.0023
     39  N         26.4550    4.4470    5.8910 N.am  100  PRO100     -0.2727
     40  CA        26.3770    4.4890    7.3550 C.3   100  PRO100      0.1402
     41  C         27.6440    3.8960    7.9630 C.2   100  PRO100      0.2269
     42  O         28.1160    4.3500    9.0090 O.2   100  PRO100     -0.2865
     43  CB        25.1390    3.6500    7.6570 C.3   100  PRO100      0.0296
     44  CG        24.2700    3.9200    6.4710 C.3   100  PRO100      0.0237
     45  CD        25.2370    3.8440    5.3190 C.3   100  PRO100      0.0939
     46  N         32.1170   10.6320   -4.8830 N.3   123  TYR123     -0.1227
     47  CA        30.7690   10.4070   -4.3680 C.3   123  TYR123      0.1736
     48  C         30.5580   11.3310   -3.1520 C.2   123  TYR123      0.2595
     49  O         31.0990   11.0890   -2.0680 O.2   123  TYR123     -0.2718
     50  CB        30.6500    8.9210   -3.9950 C.3   123  TYR123      0.0548
     51  CG        29.3330    8.5030   -3.3920 C.ar  123  TYR123     -0.0200
     52  CD1       28.1340    8.7590   -4.0470 C.ar  123  TYR123     -0.0009
     53  CD2       29.2890    7.8360   -2.1670 C.ar  123  TYR123     -0.0009
     54  CE1       26.9260    8.3630   -3.4960 C.ar  123  TYR123      0.0417
     55  CE2       28.0810    7.4260   -1.6070 C.ar  123  TYR123      0.0417
     56  CZ        26.9020    7.6900   -2.2740 C.ar  123  TYR123      0.1957
     57  OH        25.6980    7.2750   -1.7420 O.3   123  TYR123     -0.2866
     58  N         29.7660   12.3870   -3.3550 N.am  124  TYR124     -0.1976
     59  CA        29.4990   13.4110   -2.3470 C.3   124  TYR124      0.1639
     60  C         29.2930   12.9940   -0.8970 C.2   124  TYR124      0.2290
     61  O         29.6770   13.7240    0.0170 O.2   124  TYR124     -0.2864
     62  CB        28.3350   14.3020   -2.8050 C.3   124  TYR124      0.0560
     63  CG        27.0650   13.5620   -3.1620 C.ar  124  TYR124     -0.0198
     64  CD1       26.0080   13.4680   -2.2500 C.ar  124  TYR124     -0.0009
     65  CD2       26.9260   12.9300   -4.4000 C.ar  124  TYR124     -0.0009
     66  CE1       24.8450   12.7590   -2.5570 C.ar  124  TYR124      0.0417
     67  CE2       25.7610   12.2140   -4.7200 C.ar  124  TYR124      0.0417
     68  CZ        24.7270   12.1330   -3.7900 C.ar  124  TYR124      0.1957
     69  OH        23.5920   11.4050   -4.0800 O.3   124  TYR124     -0.2866
     70  N         30.9130   11.1110    0.7920 N.3   126  PHE126     -0.1241
     71  CA        32.2240   11.0270    1.4260 C.3   126  PHE126      0.1605
     72  C         32.4670   12.3310    2.1740 C.2   126  PHE126      0.2264
     73  O         33.0290   12.3310    3.2640 O.2   126  PHE126     -0.2867
     74  CB        33.3420   10.8460    0.3870 C.3   126  PHE126      0.0534
     75  CG        33.6460    9.4110    0.0420 C.ar  126  PHE126     -0.0203
     76  CD1       34.8740    9.0710   -0.5210 C.ar  126  PHE126     -0.0042
     77  CD2       32.7040    8.4080    0.2420 C.ar  126  PHE126     -0.0042
     78  CE1       35.1620    7.7540   -0.8840 C.ar  126  PHE126     -0.0003
     79  CE2       32.9810    7.0840   -0.1190 C.ar  126  PHE126     -0.0003
     80  CZ        34.2120    6.7600   -0.6830 C.ar  126  PHE126     -0.0000
     81  N         37.9350    5.2680   -2.6890 N.3   171  CYS171     -0.1235
     82  CA        36.8140    4.7190   -3.4540 C.3   171  CYS171      0.1677
     83  C         37.3830    3.8660   -4.5910 C.2   171  CYS171      0.2270
     84  O         38.1040    4.3790   -5.4380 O.2   171  CYS171     -0.2867
     85  CB        35.9520    5.8590   -4.0250 C.3   171  CYS171      0.0956
     86  SG        34.3610    5.3340   -4.7810 S.3   171  CYS171     -0.0801
     87  N         33.8370    6.1880   -8.2010 N.3   175  ASN175     -0.1240
     88  CA        32.6340    6.8970   -8.6430 C.3   175  ASN175      0.1653
     89  C         33.0030    8.3760   -8.4260 C.2   175  ASN175      0.2266
     90  O         33.4590    8.7390   -7.3440 O.2   175  ASN175     -0.2867
     91  CB        31.4530    6.4670   -7.7630 C.3   175  ASN175      0.1155
     92  CG        30.2430    7.3940   -7.8640 C.2   175  ASN175      0.2627
     93  OD1       30.0360    8.0960   -8.8650 O.2   175  ASN175     -0.2716
     94  ND2       29.4190    7.3770   -6.8220 N.am  175  ASN175     -0.0877
     95  N         36.1950    1.9380    0.1640 N.3   203  ASP203     -0.1239
     96  CA        34.8260    1.7080   -0.3020 C.3   203  ASP203      0.1674
     97  C         34.8730    0.9910   -1.6500 C.2   203  ASP203      0.2266
     98  O         35.0900    1.6080   -2.6930 O.2   203  ASP203     -0.2867
     99  CB        34.0980    3.0540   -0.4400 C.3   203  ASP203      0.1410
    100  CG        32.6210    2.9030   -0.8040 C.2   203  ASP203      0.3668
    101  OD1       31.8780    3.9060   -0.6850 O.co2 203  ASP203     -0.2456
    102  OD2       32.1980    1.8040   -1.2150 O.co2 203  ASP203     -0.2456
    103  N         32.3270   -0.8250   -3.0860 N.3   205  ILE205     -0.1231
    104  CA        30.9620   -1.2480   -3.3650 C.3   205  ILE205      0.1692
    105  C         30.6830   -1.5140   -4.8470 C.2   205  ILE205      0.2592
    106  O         29.7460   -2.2350   -5.1860 O.2   205  ILE205     -0.2718
    107  CB        29.9360   -0.2230   -2.8350 C.3   205  ILE205      0.0266
    108  CG1       28.5740   -0.9010   -2.6570 C.3   205  ILE205      0.0019
    109  CG2       29.8020    0.9410   -3.8080 C.3   205  ILE205      0.0020
    110  CD1       27.5480   -0.0490   -1.9170 C.3   205  ILE205      0.0001
    111  N         31.4900   -0.9380   -5.7280 N.am  206  HIS206     -0.1976
    112  CA        31.3080   -1.1550   -7.1610 C.3   206  HIS206      0.1656
    113  C         32.2420   -2.2320   -7.7160 C.2   206  HIS206      0.2291
    114  O         32.2770   -2.4390   -8.9310 O.2   206  HIS206     -0.2864
    115  CB        31.6000    0.1300   -7.9420 C.3   206  HIS206      0.0771
    116  CG        30.5290    1.1630   -7.8400 C.ar  206  HIS206      0.0820
    117  ND1       30.6160    2.2460   -6.9950 N.ar  206  HIS206     -0.2267
    118  CD2       29.3480    1.2850   -8.4910 C.ar  206  HIS206      0.1154
    119  CE1       29.5350    2.9910   -7.1300 C.ar  206  HIS206      0.1986
    120  NE2       28.7490    2.4300   -8.0300 N.ar  206  HIS206     -0.2212
    121  N         24.4980   -4.8760   -3.1400 N.3   237  SER237     -0.1202
    122  CA        23.4780   -3.9180   -3.5500 C.3   237  SER237      0.2020
    123  C         23.6920   -3.3690   -4.9520 C.2   237  SER237      0.2618
    124  O         22.7890   -3.4260   -5.7890 O.2   237  SER237     -0.2717
    125  CB        23.4110   -2.7840   -2.5310 C.3   237  SER237      0.2103
    126  OG        24.7160   -2.3220   -2.2220 O.3   237  SER237     -0.2182
    127  N         24.8740   -2.8350   -5.2210 N.am  238  LYS238     -0.1979
    128  CA        25.1300   -2.3220   -6.5570 C.3   238  LYS238      0.1596
    129  C         25.1920   -3.4620   -7.5660 C.2   238  LYS238      0.2287
    130  O         24.5260   -3.4160   -8.6020 O.2   238  LYS238     -0.2864
    131  CB        26.4290   -1.4980   -6.5970 C.3   238  LYS238      0.0298
    132  CG        26.3090   -0.1050   -5.9690 C.3   238  LYS238      0.0038
    133  CD        24.8460    0.2040   -5.6080 C.3   238  LYS238      0.0206
    134  CE        24.6400    1.5940   -5.0520 C.3   238  LYS238      0.1093
    135  NZ        25.3270    1.7370   -3.7540 N.3   238  LYS238     -0.1314
    136  N         19.8500   -2.2730   -3.4900 N.3   243  ALA243     -0.1245
    137  CA        20.1200   -1.2240   -2.5070 C.3   243  ALA243      0.1562
    138  C         18.9010   -1.0560   -1.5920 C.2   243  ALA243      0.2260
    139  O         18.9530   -0.3240   -0.5920 O.2   243  ALA243     -0.2867
    140  CB        20.4180    0.0820   -3.2050 C.3   243  ALA243      0.0290
    141  N         25.0480   -5.0080    4.0640 N.3   248  SER248     -0.1217
    142  CA        26.4240   -4.7670    3.6480 C.3   248  SER248      0.1889
    143  C         27.3730   -5.6830    4.4060 C.2   248  SER248      0.2288
    144  O         27.0700   -6.1570    5.5050 O.2   248  SER248     -0.2866
    145  CB        26.8370   -3.3180    3.9220 C.3   248  SER248      0.2089
    146  OG        25.9290   -2.3930    3.3580 O.3   248  SER248     -0.2183
    147  N         28.5200    3.8870  -14.2790 N.3   327  LEU327     -0.1245
    148  CA        28.3270    5.3360  -14.2720 C.3   327  LEU327      0.1561
    149  C         29.4180    5.9740  -15.1380 C.2   327  LEU327      0.2260
    150  O         30.5920    5.9790  -14.7590 O.2   327  LEU327     -0.2867
    151  CB        28.4310    5.8560  -12.8410 C.3   327  LEU327      0.0270
    152  CG        27.5360    5.1120  -11.8400 C.3   327  LEU327      0.0019
    153  CD1       27.9110    5.5030  -10.4310 C.3   327  LEU327      0.0001
    154  CD2       26.0730    5.4290  -12.1060 C.3   327  LEU327      0.0001
    155  N         23.6070   13.0790  -13.0500 N.3   355  ASP355     -0.1239
    156  CA        24.0160   13.4080  -11.7020 C.3   355  ASP355      0.1674
    157  C         25.0130   14.5010  -12.0520 C.2   355  ASP355      0.2266
    158  O         26.1460   14.2140  -12.4320 O.2   355  ASP355     -0.2867
    159  CB        24.7020   12.2270  -11.0230 C.3   355  ASP355      0.1410
    160  CG        23.8530   11.6230   -9.9220 C.2   355  ASP355      0.3668
    161  OD1       22.7030   11.2150  -10.2070 O.co2 355  ASP355     -0.2456
    162  OD2       24.3270   11.5590   -8.7700 O.co2 355  ASP355     -0.2456
    163  N         29.8690   16.3430   -7.1130 N.3   360  PHE360     -0.1241
    164  CA        30.9180   15.4410   -6.6610 C.3   360  PHE360      0.1605
    165  C         32.1520   16.2420   -6.2730 C.2   360  PHE360      0.2264
    166  O         33.1620   15.6810   -5.8410 O.2   360  PHE360     -0.2867
    167  CB        31.2730   14.4230   -7.7530 C.3   360  PHE360      0.0534
    168  CG        30.1070   13.5820   -8.2040 C.ar  360  PHE360     -0.0203
    169  CD1       29.3580   13.9440   -9.3220 C.ar  360  PHE360     -0.0042
    170  CD2       29.7650   12.4150   -7.5180 C.ar  360  PHE360     -0.0042
    171  CE1       28.2840   13.1550   -9.7590 C.ar  360  PHE360     -0.0003
    172  CE2       28.6910   11.6180   -7.9430 C.ar  360  PHE360     -0.0003
    173  CZ        27.9500   11.9910   -9.0690 C.ar  360  PHE360     -0.0000
    174  N         27.1710   12.8380  -15.1900 N.3   369  ARG369     -0.1245
    175  CA        27.3470   11.4190  -14.9980 C.3   369  ARG369      0.1563
    176  C         26.0700   10.7250  -15.4360 C.2   369  ARG369      0.2260
    177  O         24.9940   10.9900  -14.9160 O.2   369  ARG369     -0.2867
    178  CB        27.6420   11.0990  -13.5330 C.3   369  ARG369      0.0307
    179  CG        28.1870    9.6850  -13.3190 C.3   369  ARG369      0.0489
    180  CD        28.1530    9.2940  -11.8500 C.3   369  ARG369      0.2205
    181  NE        26.7860    9.0670  -11.4110 N.pl3 369  ARG369     -0.0865
    182  CZ        26.4260    8.7640  -10.1680 C.cat 369  ARG369      0.5346
    183  NH1       27.3390    8.6520   -9.2080 N.pl3 369  ARG369      0.1354
    184  NH2       25.1460    8.5510   -9.8940 N.pl3 369  ARG369      0.1354
@<TRIPOS>BOND
     1   176   175    1
     2   176   177    2
     3   174   175    1
     4   149   150    2
     5   149   148    1
     6   175   178    1
     7   147   148    1
     8   148   151    1
     9   178   179    1
    10   179   180    1
    11   155   156    1
    12   151   152    1
    13   158   157    2
    14   154   152    1
    15   157   156    1
    16   180   181    1
    17   152   153    1
    18   156   159    1
    19   181   182    2
    20   159   160    1
    21    12    11    2
    22   161   160   ar
    23   182   184    1
    24   182   183    1
    25     9    10    1
    26   160   162   ar
    27   171   169   ar
    28   171   173   ar
    29   169   168   ar
    30    11    10    1
    31    11    16   am
    32   173   172   ar
    33   114   113    2
    34    10    13    1
    35    93    92    2
    36    17    16    1
    37    17    18    1
    38    17    20    1
    39    88    89    1
    40    88    87    1
    41    88    91    1
    42   130   129    2
    43   118   120   ar
    44   118   116   ar
    45    18    19    2
    46    89    90    2
    47   168   167    1
    48   168   170   ar
    49   120   119   ar
    50    13    15    1
    51    13    14    1
    52   172   170   ar
    53   115   116    1
    54   115   112    1
    55    92    91    1
    56    92    94   am
    57   116   117   ar
    58   167   164    1
    59   113   112    1
    60   129   128    1
    61   112   111    1
    62   119   117   ar
    63   163   164    1
    64   164   165    1
    65   131   128    1
    66   131   132    1
    67   128   127    1
    68   165   166    2
    69     4     3    2
    70     3     2    1
    71   132   133    1
    72   124   123    2
    73   111   105   am
    74   133   134    1
    75    84    83    2
    76   127   123   am
    77   106   105    2
    78     1     2    1
    79   134   135    1
    80   123   122    1
    81    46    47    1
    82   105   104    1
    83     2     5    1
    84    86    85    1
    85    67    65   ar
    86    67    68   ar
    87    83    82    1
    88    65    63   ar
    89    47    50    1
    90    47    48    1
    91    69    68    1
    92    52    54   ar
    93    52    51   ar
    94    85    82    1
    95    50    51    1
    96     5     6    1
    97   109   107    1
    98    68    66   ar
    99   122   121    1
   100   122   125    1
   101    54    56   ar
   102   136   137    1
   103    82    81    1
   104    51    53   ar
   105   104   103    1
   106   104   107    1
   107    58    48   am
   108    58    59    1
   109   140   137    1
   110    63    62    1
   111    63    64   ar
   112    48    49    2
   113   107   108    1
   114    62    59    1
   115    98    97    2
   116   108   110    1
   117    66    64   ar
   118   125   126    1
   119   137   138    1
   120     6     7    1
   121     6     8    1
   122    59    60    1
   123    56    57    1
   124    56    55   ar
   125    53    55   ar
   126    97    96    1
   127   138   139    2
   128   102   100   ar
   129    60    61    2
   130    78    80   ar
   131    78    76   ar
   132   100   101   ar
   133   100    99    1
   134    80    79   ar
   135    76    75   ar
   136    99    96    1
   137    96    95    1
   138    79    77   ar
   139    75    77   ar
   140    75    74    1
   141    74    71    1
   142    70    71    1
   143    31    29    1
   144    71    72    1
   145    38    36    1
   146    30    29    1
   147    29    26    1
   148    72    73    2
   149    25    26    1
   150    25    23   am
   151    36    33    1
   152    36    37    1
   153    26    27    1
   154    32    27   am
   155    32    33    1
   156   146   145    1
   157   142   145    1
   158   142   141    1
   159   142   143    1
   160    27    28    2
   161    33    34    1
   162    22    23    1
   163    22    21    1
   164    23    24    2
   165   143   144    2
   166    34    39   am
   167    34    35    2
   168    45    39    1
   169    45    44    1
   170    39    40    1
   171    44    43    1
   172    40    43    1
   173    40    41    1
   174    41    42    2
