@<TRIPOS>MOLECULE
tmp/1c7sA00.pdb
 190 191 0 0 0
SMALL
GASTEIGER

@<TRIPOS>ATOM
      1  N         18.6120   35.9280   12.5750 N.3    65  PRO65      -0.2102
      2  CA        19.8450   36.5310   13.0020 C.3    65  PRO65       0.1504
      3  C         21.0430   35.9970   12.1980 C.2    65  PRO65       0.2575
      4  O         22.1450   36.5080   12.3410 O.2    65  PRO65      -0.2718
      5  CB        20.0150   36.1620   14.5020 C.3    65  PRO65       0.0282
      6  CG        19.2450   34.8660   14.5370 C.3    65  PRO65       0.0208
      7  CD        18.0560   35.0010   13.5660 C.3    65  PRO65       0.0893
      8  N         20.7590   35.0170   11.3520 N.am   66  ARG66      -0.1980
      9  CA        21.8010   34.4120   10.4980 C.3    66  ARG66       0.1597
     10  C         21.4680   34.6610    9.0320 C.2    66  ARG66       0.2287
     11  O         20.2850   34.6330    8.5970 O.2    66  ARG66      -0.2864
     12  CB        21.8580   32.8890   10.6760 C.3    66  ARG66       0.0334
     13  CG        22.0930   32.3690   12.0680 C.3    66  ARG66       0.0492
     14  CD        23.3540   33.0100   12.6600 C.3    66  ARG66       0.2205
     15  NE        23.6820   32.3830   13.9530 N.pl3  66  ARG66      -0.0865
     16  CZ        24.4890   32.9000   14.8500 C.cat  66  ARG66       0.5346
     17  NH1       25.0750   34.0830   14.6690 N.pl3  66  ARG66       0.1354
     18  NH2       24.7550   32.2610   15.9970 N.pl3  66  ARG66       0.1354
     19  N         27.1120   30.3970   10.2790 N.3   111  TYR111     -0.1241
     20  CA        27.3980   30.0390   11.6500 C.3   111  TYR111      0.1605
     21  C         26.6750   28.7940   12.1120 C.2   111  TYR111      0.2264
     22  O         26.7880   27.7160   11.4810 O.2   111  TYR111     -0.2867
     23  CB        27.1430   31.2270   12.6050 C.3   111  TYR111      0.0534
     24  CG        27.9330   32.4600   12.2840 C.ar  111  TYR111     -0.0201
     25  CD1       29.3120   32.5090   12.4510 C.ar  111  TYR111     -0.0009
     26  CD2       27.2830   33.6340   11.8700 C.ar  111  TYR111     -0.0009
     27  CE1       30.0530   33.6540   12.1870 C.ar  111  TYR111      0.0417
     28  CE2       28.0050   34.7800   11.6070 C.ar  111  TYR111      0.0417
     29  CZ        29.3850   34.7900   11.7770 C.ar  111  TYR111      0.1957
     30  OH        30.1150   35.9450   11.5200 O.3   111  TYR111     -0.2866
     31  N         16.0000   47.7400   20.3720 N.3   322  ARG322     -0.1245
     32  CA        15.7410   46.5740   19.4720 C.3   322  ARG322      0.1563
     33  C         14.2710   46.1870   19.5500 C.2   322  ARG322      0.2260
     34  O         13.6710   45.8170   18.5400 O.2   322  ARG322     -0.2867
     35  CB        16.6380   45.4300   19.8920 C.3   322  ARG322      0.0307
     36  CG        17.9690   45.4320   19.1420 C.3   322  ARG322      0.0489
     37  CD        18.6550   46.8310   19.2340 C.3   322  ARG322      0.2205
     38  NE        19.9500   46.6460   18.5280 N.pl3 322  ARG322     -0.0865
     39  CZ        21.0620   46.1460   19.0870 C.cat 322  ARG322      0.5346
     40  NH1       21.1570   45.8210   20.3560 N.pl3 322  ARG322      0.1354
     41  NH2       22.1230   45.9110   18.2880 N.pl3 322  ARG322      0.1354
     42  N         25.3940   51.9760   14.6480 N.3   425  HIS425     -0.1241
     43  CA        24.1200   51.6500   15.3290 C.3   425  HIS425      0.1621
     44  C         23.1990   52.8620   15.3780 C.2   425  HIS425      0.2264
     45  O         22.4560   53.1170   16.3310 O.2   425  HIS425     -0.2867
     46  CB        24.4360   51.0510   16.6830 C.3   425  HIS425      0.0745
     47  CG        24.8990   49.6140   16.5410 C.ar  425  HIS425      0.0817
     48  ND1       24.0200   48.5570   16.6270 N.ar  425  HIS425     -0.2268
     49  CD2       26.1300   49.0780   16.4220 C.ar  425  HIS425      0.1154
     50  CE1       24.6920   47.4380   16.4520 C.ar  425  HIS425      0.1986
     51  NE2       25.9900   47.7100   16.3360 N.ar  425  HIS425     -0.2212
     52  N         27.6290   44.6190   11.8820 N.3   466  VAL466     -0.1231
     53  CA        27.5260   43.3120   12.5470 C.3   466  VAL466      0.1692
     54  C         26.1300   42.7020   12.4330 C.2   466  VAL466      0.2591
     55  O         25.9890   41.4750   12.5220 O.2   466  VAL466     -0.2718
     56  CB        27.9090   43.5310   14.0290 C.3   466  VAL466      0.0266
     57  CG1       27.5330   42.3540   14.9100 C.3   466  VAL466      0.0020
     58  CG2       29.4270   43.7550   14.1060 C.3   466  VAL466      0.0020
     59  N         25.0880   43.5310   12.3090 N.am  467  GLN467     -0.1979
     60  CA        23.7140   42.9780   12.1960 C.3   467  GLN467      0.1601
     61  C         23.2330   42.9460   10.7690 C.2   467  GLN467      0.2287
     62  O         22.0410   42.7790   10.4560 O.2   467  GLN467     -0.2864
     63  CB        22.7760   43.8490   13.0760 C.3   467  GLN467      0.0394
     64  CG        22.9420   43.5320   14.5550 C.3   467  GLN467      0.0908
     65  CD        24.1190   44.2430   15.2040 C.2   467  GLN467      0.2608
     66  OE1       24.7120   45.1620   14.6300 O.2   467  GLN467     -0.2717
     67  NE2       24.4430   43.7870   16.4150 N.am  467  GLN467     -0.0878
     68  N         29.9050   51.7680   19.4310 N.3   512  ALA512     -0.1231
     69  CA        29.9920   50.3290   19.1150 C.3   512  ALA512      0.1694
     70  C         30.9060   50.1640   17.8910 C.2   512  ALA512      0.2591
     71  O         31.2840   51.1720   17.2780 O.2   512  ALA512     -0.2718
     72  CB        28.6280   49.7310   18.8330 C.3   512  ALA512      0.0304
     73  N         31.2540   48.9380   17.5690 N.am  513  GLU513     -0.1979
     74  CA        32.1230   48.6070   16.4540 C.3   513  GLU513      0.1602
     75  C         31.7010   49.1890   15.1150 C.2   513  GLU513      0.2287
     76  O         30.7160   48.7440   14.5240 O.2   513  GLU513     -0.2864
     77  CB        32.2560   47.0820   16.4030 C.3   513  GLU513      0.0415
     78  CG        31.0090   46.3290   15.9710 C.3   513  GLU513      0.1163
     79  CD        29.8420   46.4530   16.9180 C.2   513  GLU513      0.3649
     80  OE1       30.0890   46.5920   18.1340 O.co2 513  GLU513     -0.2457
     81  OE2       28.6740   46.3980   16.4490 O.co2 513  GLU513     -0.2457
     82  N         31.1540   52.2730   24.7080 N.3   589  TRP589     -0.1241
     83  CA        31.6490   50.8670   24.6430 C.3   589  TRP589      0.1605
     84  C         33.1030   51.0060   24.1550 C.2   589  TRP589      0.2264
     85  O         33.3650   51.9800   23.4450 O.2   589  TRP589     -0.2867
     86  CB        30.7770   50.0460   23.6950 C.3   589  TRP589      0.0550
     87  CG        29.3460   50.0400   24.1660 C.ar  589  TRP589      0.0003
     88  CD1       28.3300   50.8500   23.7350 C.ar  589  TRP589      0.0946
     89  CD2       28.7880   49.2090   25.1870 C.ar  589  TRP589      0.0152
     90  NE1       27.1960   50.5880   24.4760 N.ar  589  TRP589     -0.2442
     91  CE2       27.4360   49.5750   25.3390 C.ar  589  TRP589      0.0810
     92  CE3       29.2960   48.1650   25.9530 C.ar  589  TRP589      0.0012
     93  CZ2       26.6050   48.9790   26.3060 C.ar  589  TRP589      0.0191
     94  CZ3       28.4700   47.5720   26.9160 C.ar  589  TRP589      0.0001
     95  CH2       27.1290   47.9580   27.0310 C.ar  589  TRP589      0.0015
     96  N         34.0320   45.3920   27.3530 N.3   612  TRP612     -0.1241
     97  CA        33.2380   44.1940   26.9700 C.3   612  TRP612      0.1605
     98  C         33.9930   43.1320   26.2210 C.2   612  TRP612      0.2264
     99  O         33.4050   42.3090   25.4920 O.2   612  TRP612     -0.2867
    100  CB        31.9740   44.6670   26.2700 C.3   612  TRP612      0.0550
    101  CG        32.1010   45.3260   24.9410 C.ar  612  TRP612      0.0003
    102  CD1       32.5890   46.5830   24.6830 C.ar  612  TRP612      0.0946
    103  CD2       31.6640   44.8100   23.6730 C.ar  612  TRP612      0.0152
    104  NE1       32.5280   46.8580   23.3240 N.ar  612  TRP612     -0.2442
    105  CE2       31.9500   45.7710   22.6900 C.ar  612  TRP612      0.0810
    106  CE3       31.0530   43.6090   23.2810 C.ar  612  TRP612      0.0012
    107  CZ2       31.6540   45.5830   21.3450 C.ar  612  TRP612      0.0191
    108  CZ3       30.7710   43.4230   21.9530 C.ar  612  TRP612      0.0001
    109  CH2       31.0640   44.3830   20.9870 C.ar  612  TRP612      0.0015
    110  N         26.2860   39.6690   30.5320 N.3   642  TYR642     -0.1241
    111  CA        25.3160   39.9680   29.4610 C.3   642  TYR642      0.1605
    112  C         24.0750   39.1120   29.7890 C.2   642  TYR642      0.2264
    113  O         24.1120   37.8790   29.7700 O.2   642  TYR642     -0.2867
    114  CB        25.8160   39.6770   28.0530 C.3   642  TYR642      0.0534
    115  CG        26.4590   40.8430   27.3410 C.ar  642  TYR642     -0.0201
    116  CD1       27.1920   41.8190   28.0480 C.ar  642  TYR642     -0.0009
    117  CD2       26.3180   41.0120   25.9880 C.ar  642  TYR642     -0.0009
    118  CE1       27.8150   42.8520   27.3690 C.ar  642  TYR642      0.0417
    119  CE2       26.8540   42.0750   25.3110 C.ar  642  TYR642      0.0417
    120  CZ        27.6450   42.9860   26.0010 C.ar  642  TYR642      0.1957
    121  OH        28.1640   44.0190   25.2550 O.3   642  TYR642     -0.2866
    122  N         21.3300   39.0390   28.2090 N.3   644  ASP644     -0.1239
    123  CA        20.5870   38.5930   27.0310 C.3   644  ASP644      0.1674
    124  C         21.0590   37.1810   26.6590 C.2   644  ASP644      0.2266
    125  O         20.6020   36.6490   25.6470 O.2   644  ASP644     -0.2867
    126  CB        20.7640   39.5200   25.8250 C.3   644  ASP644      0.1410
    127  CG        22.2060   39.8230   25.4980 C.2   644  ASP644      0.3668
    128  OD1       22.9450   40.1750   26.4420 O.co2 644  ASP644     -0.2456
    129  OD2       22.6220   39.7290   24.3170 O.co2 644  ASP644     -0.2456
    130  N         20.7190   35.2060   23.2700 N.3   656  TYR656     -0.1227
    131  CA        21.8570   35.1820   22.3400 C.3   656  TYR656      0.1736
    132  C         22.9960   34.5090   23.1160 C.2   656  TYR656      0.2595
    133  O         22.8650   34.2220   24.2970 O.2   656  TYR656     -0.2718
    134  CB        22.2790   36.5150   21.8140 C.3   656  TYR656      0.0548
    135  CG        21.5700   36.9990   20.5630 C.ar  656  TYR656     -0.0200
    136  CD1       20.3760   36.4890   20.1080 C.ar  656  TYR656     -0.0009
    137  CD2       22.1240   38.1050   19.9140 C.ar  656  TYR656     -0.0009
    138  CE1       19.7660   36.9910   18.9560 C.ar  656  TYR656      0.0417
    139  CE2       21.5110   38.6480   18.7810 C.ar  656  TYR656      0.0417
    140  CZ        20.3290   38.0650   18.3270 C.ar  656  TYR656      0.1957
    141  OH        19.7290   38.6130   17.2150 O.3   656  TYR656     -0.2866
    142  N         24.0840   34.1610   22.4010 N.am  657  TYR657     -0.1962
    143  CA        25.1340   33.3830   23.0750 C.3   657  TYR657      0.1771
    144  C         26.4700   33.5230   22.3670 C.2   657  TYR657      0.2619
    145  O         27.3340   32.6030   22.4200 O.2   657  TYR657     -0.2715
    146  CB        24.6690   31.9010   23.1020 C.3   657  TYR657      0.0574
    147  CG        24.2740   31.4000   21.7270 C.ar  657  TYR657     -0.0198
    148  CD1       22.9780   31.6030   21.2580 C.ar  657  TYR657     -0.0009
    149  CD2       25.1760   30.7470   20.8990 C.ar  657  TYR657     -0.0009
    150  CE1       22.5870   31.2120   19.9940 C.ar  657  TYR657      0.0417
    151  CE2       24.7900   30.3060   19.6370 C.ar  657  TYR657      0.0417
    152  CZ        23.5200   30.5780   19.1800 C.ar  657  TYR657      0.1957
    153  OH        23.1360   30.1410   17.9340 O.3   657  TYR657     -0.2866
    154  N         26.7290   34.6700   21.7730 N.am  658  TRP658     -0.1974
    155  CA        27.9920   34.8520   21.0370 C.3   658  TRP658      0.1640
    156  C         29.1770   34.9500   21.9780 C.2   658  TRP658      0.2290
    157  O         30.2650   34.3890   21.6330 O.2   658  TRP658     -0.2864
    158  CB        27.9140   36.0690   20.0930 C.3   658  TRP658      0.0576
    159  CG        27.7530   37.3550   20.8490 C.ar  658  TRP658      0.0006
    160  CD1       26.5610   37.9630   21.1450 C.ar  658  TRP658      0.0946
    161  CD2       28.7840   38.1530   21.4230 C.ar  658  TRP658      0.0152
    162  NE1       26.7980   39.1030   21.8970 N.ar  658  TRP658     -0.2442
    163  CE2       28.1650   39.2410   22.0600 C.ar  658  TRP658      0.0810
    164  CE3       30.1700   38.0580   21.4780 C.ar  658  TRP658      0.0012
    165  CZ2       28.8760   40.2350   22.7190 C.ar  658  TRP658      0.0191
    166  CZ3       30.9090   39.0350   22.1390 C.ar  658  TRP658      0.0001
    167  CH2       30.2450   40.1250   22.7550 C.ar  658  TRP658      0.0015
    168  N         20.3950   43.2820   26.5320 N.3   710  TRP710     -0.1241
    169  CA        20.2120   43.6360   25.1180 C.3   710  TRP710      0.1605
    170  C         18.8600   42.9930   24.7300 C.2   710  TRP710      0.2264
    171  O         18.5210   41.9570   25.3230 O.2   710  TRP710     -0.2867
    172  CB        21.3570   43.0930   24.2670 C.3   710  TRP710      0.0550
    173  CG        22.6520   43.8100   24.5350 C.ar  710  TRP710      0.0003
    174  CD1       23.6790   43.3620   25.3230 C.ar  710  TRP710      0.0946
    175  CD2       23.0800   45.0830   23.9960 C.ar  710  TRP710      0.0152
    176  NE1       24.7080   44.3140   25.3240 N.ar  710  TRP710     -0.2442
    177  CE2       24.3480   45.3410   24.5150 C.ar  710  TRP710      0.0810
    178  CE3       22.4930   46.0000   23.1300 C.ar  710  TRP710      0.0012
    179  CZ2       25.0460   46.5080   24.1820 C.ar  710  TRP710      0.0191
    180  CZ3       23.1760   47.1650   22.8000 C.ar  710  TRP710      0.0001
    181  CH2       24.4560   47.3920   23.3350 C.ar  710  TRP710      0.0015
    182  N         17.3190   41.9430   21.4140 N.3   712  GLU712     -0.1245
    183  CA        16.9360   41.2910   20.1450 C.3   712  GLU712      0.1567
    184  C         15.8120   40.2750   20.2690 C.2   712  GLU712      0.2260
    185  O         14.8350   40.3930   19.5070 O.2   712  GLU712     -0.2867
    186  CB        18.1980   40.5560   19.6030 C.3   712  GLU712      0.0388
    187  CG        19.2140   41.5290   18.9950 C.3   712  GLU712      0.1160
    188  CD        20.2390   42.0560   19.9750 C.2   712  GLU712      0.3649
    189  OE1       19.9620   42.1850   21.1700 O.co2 712  GLU712     -0.2457
    190  OE2       21.3990   42.3270   19.5420 O.co2 712  GLU712     -0.2457
@<TRIPOS>BOND
     1    11    10    2
     2    10     9    1
     3    19    20    1
     4    62    61    2
     5     9    12    1
     6     9     8    1
     7    12    13    1
     8    61    60    1
     9     8     3   am
    10    22    21    2
    11    30    29    1
    12    28    29   ar
    13    28    26   ar
    14    20    21    1
    15    20    23    1
    16    29    27   ar
    17    26    24   ar
    18    52    53    1
    19    13    14    1
    20    27    25   ar
    21    60    59    1
    22    60    63    1
    23     3     4    2
    24     3     2    1
    25    24    25   ar
    26    24    23    1
    27    59    54   am
    28    54    55    2
    29    54    53    1
    30    53    56    1
    31     1     2    1
    32     1     7    1
    33    14    15    1
    34     2     5    1
    35    63    64    1
    36     7     6    1
    37    15    16    2
    38    56    58    1
    39    56    57    1
    40     5     6    1
    41    76    75    2
    42    64    65    1
    43    66    65    2
    44    42    43    1
    45    17    16    1
    46    16    18    1
    47    75    74    1
    48    65    67   am
    49    43    44    1
    50    43    46    1
    51    44    45    2
    52    78    77    1
    53    78    79    1
    54    51    49   ar
    55    51    50   ar
    56    77    74    1
    57    49    47   ar
    58    81    79   ar
    59    50    48   ar
    60    74    73    1
    61    47    48   ar
    62    47    46    1
    63    79    80   ar
    64   141   140    1
    65    71    70    2
    66    73    70   am
    67    70    69    1
    68   153   152    1
    69    41    39    1
    70   140   139   ar
    71   140   138   ar
    72    38    39    2
    73    38    37    1
    74    34    33    2
    75   139   137   ar
    76    72    69    1
    77   138   136   ar
    78   187   186    1
    79   187   188    1
    80    39    40    1
    81    69    68    1
    82    36    37    1
    83    36    35    1
    84   152   151   ar
    85   152   150   ar
    86    32    33    1
    87    32    35    1
    88    32    31    1
    89   185   184    2
    90   190   188   ar
    91   186   183    1
    92   151   149   ar
    93   137   135   ar
    94   188   189   ar
    95   150   148   ar
    96   158   159    1
    97   158   155    1
    98   136   135   ar
    99   183   184    1
   100   183   182    1
   101   135   134    1
   102   159   160   ar
   103   159   161   ar
   104   149   147   ar
   105   109   107   ar
   106   109   108   ar
   107   155   154    1
   108   155   156    1
   109   160   162   ar
   110   148   147   ar
   111   107   105   ar
   112   161   164   ar
   113   161   163   ar
   114   164   166   ar
   115   157   156    2
   116   147   146    1
   117   154   144   am
   118   134   131    1
   119   162   163   ar
   120   108   106   ar
   121   163   165   ar
   122   166   167   ar
   123   131   132    1
   124   131   130    1
   125   144   145    2
   126   144   143    1
   127   142   143    1
   128   142   132   am
   129   105   104   ar
   130   105   103   ar
   131   165   167   ar
   132   180   178   ar
   133   180   181   ar
   134   143   146    1
   135   132   133    2
   136   178   175   ar
   137   106   103   ar
   138   104   102   ar
   139   181   179   ar
   140    85    84    2
   141   103   101   ar
   142    86    87    1
   143    86    83    1
   144    88    87   ar
   145    88    90   ar
   146   175   177   ar
   147   175   173   ar
   148    84    83    1
   149    87    89   ar
   150   179   177   ar
   151   172   173    1
   152   172   169    1
   153   129   127   ar
   154    90    91   ar
   155   177   176   ar
   156   173   174   ar
   157    83    82    1
   158   102   101   ar
   159   170   169    1
   160   170   171    2
   161   101   100    1
   162   169   168    1
   163    89    91   ar
   164    89    92   ar
   165   121   120    1
   166   119   117   ar
   167   119   120   ar
   168   174   176   ar
   169    91    93   ar
   170    99    98    2
   171   127   126    1
   172   127   128   ar
   173   125   124    2
   174   126   123    1
   175    92    94   ar
   176   117   115   ar
   177   120   118   ar
   178    98    97    1
   179   100    97    1
   180    93    95   ar
   181   124   123    1
   182    94    95   ar
   183    97    96    1
   184   123   122    1
   185   115   116   ar
   186   115   114    1
   187   118   116   ar
   188   114   111    1
   189   111   112    1
   190   111   110    1
   191   113   112    2
