@<TRIPOS>MOLECULE
tmp/1c7zB00.pdb
 98 92 0 0 0
SMALL
GASTEIGER

@<TRIPOS>ATOM
      1  N         11.6840   17.6800   28.9960 N.3    20  ILE20      -0.1231
      2  CA        10.7060   16.9220   28.2280 C.3    20  ILE20       0.1692
      3  C          9.2370   17.2370   28.5300 C.2    20  ILE20       0.2592
      4  O          8.8880   17.7060   29.6090 O.2    20  ILE20      -0.2718
      5  CB        10.9230   15.3990   28.4230 C.3    20  ILE20       0.0266
      6  CG1       10.5920   14.9960   29.8630 C.3    20  ILE20       0.0019
      7  CG2       12.3660   15.0270   28.0900 C.3    20  ILE20       0.0020
      8  CD1       10.7590   13.5130   30.1600 C.3    20  ILE20       0.0001
      9  N          8.3830   16.9590   27.5530 N.am   21  GLY21      -0.1957
     10  CA         6.9620   17.1730   27.7170 C.3    21  GLY21       0.1869
     11  C          6.5440   18.6070   27.9300 C.2    21  GLY21       0.2309
     12  O          7.0410   19.5250   27.2680 O.2    21  GLY21      -0.2863
     13  N          1.3660   14.7690   22.8510 N.3    78  GLU78      -0.1231
     14  CA         2.5910   14.0320   23.1290 C.3    78  GLU78       0.1699
     15  C          2.4270   13.0290   24.2480 C.2    78  GLU78       0.2592
     16  O          1.4920   13.1180   25.0540 O.2    78  GLU78      -0.2718
     17  CB         3.7450   14.9980   23.4190 C.3    78  GLU78       0.0402
     18  CG         5.1190   14.3620   23.6650 C.3    78  GLU78       0.1161
     19  CD         5.6510   13.5540   22.4960 C.2    78  GLU78       0.3649
     20  OE1        4.9060   12.7250   21.9410 O.co2  78  GLU78      -0.2457
     21  OE2        6.8290   13.7320   22.1250 O.co2  78  GLU78      -0.2457
     22  N          3.3130   12.0440   24.2500 N.am   79  ILE79      -0.1980
     23  CA         3.3170   10.9930   25.2520 C.3    79  ILE79       0.1595
     24  C          3.4390   11.6450   26.6290 C.2    79  ILE79       0.2287
     25  O          4.1500   12.6330   26.7970 O.2    79  ILE79      -0.2864
     26  CB         4.4810   10.0040   24.9890 C.3    79  ILE79       0.0276
     27  CG1        4.3370    8.7550   25.8470 C.3    79  ILE79       0.0022
     28  CG2        5.8200   10.6700   25.2300 C.3    79  ILE79       0.0022
     29  CD1        5.3030    7.6440   25.4560 C.3    79  ILE79       0.0001
     30  N         16.9440   14.8100   31.6450 N.3    89  TYR89      -0.1241
     31  CA        17.2860   13.4060   31.8390 C.3    89  TYR89       0.1605
     32  C         18.0450   13.1750   33.1320 C.2    89  TYR89       0.2264
     33  O         17.7880   12.1960   33.8290 O.2    89  TYR89      -0.2867
     34  CB        18.0420   12.8440   30.6450 C.3    89  TYR89       0.0534
     35  CG        17.1360   12.6010   29.4720 C.ar   89  TYR89      -0.0201
     36  CD1       15.8500   12.0880   29.6580 C.ar   89  TYR89      -0.0009
     37  CD2       17.5380   12.9310   28.1820 C.ar   89  TYR89      -0.0009
     38  CE1       14.9960   11.9200   28.5910 C.ar   89  TYR89       0.0417
     39  CE2       16.6940   12.7660   27.1120 C.ar   89  TYR89       0.0417
     40  CZ        15.4210   12.2660   27.3190 C.ar   89  TYR89       0.1957
     41  OH        14.5630   12.1690   26.2580 O.3    89  TYR89      -0.2866
     42  N         12.8080    1.6970   32.1650 N.3   103  ARG103     -0.1245
     43  CA        12.3900    2.1300   30.8460 C.3   103  ARG103      0.1563
     44  C         13.3540    1.6020   29.7860 C.2   103  ARG103      0.2260
     45  O         12.9290    1.1260   28.7360 O.2   103  ARG103     -0.2867
     46  CB        12.3250    3.6530   30.7750 C.3   103  ARG103      0.0307
     47  CG        11.6440    4.1390   29.5200 C.3   103  ARG103      0.0489
     48  CD        11.7390    5.6310   29.3390 C.3   103  ARG103      0.2205
     49  NE        11.0300    6.0250   28.1280 N.pl3 103  ARG103     -0.0865
     50  CZ        11.3170    7.1010   27.4040 C.cat 103  ARG103      0.5346
     51  NH1       12.3100    7.9080   27.7640 N.pl3 103  ARG103      0.1354
     52  NH2       10.5980    7.3720   26.3220 N.pl3 103  ARG103      0.1354
     53  N         11.4910   -0.0370   26.5570 N.3   107  LYS107     -0.1245
     54  CA        11.0640    1.3190   26.2660 C.3   107  LYS107      0.1561
     55  C          9.7000    1.3940   25.5880 C.2   107  LYS107      0.2260
     56  O          9.0540    2.4420   25.6090 O.2   107  LYS107     -0.2867
     57  CB        12.1230    2.0160   25.4160 C.3   107  LYS107      0.0271
     58  CG        11.9330    3.5080   25.2680 C.3   107  LYS107      0.0035
     59  CD        13.0250    4.0790   24.3910 C.3   107  LYS107      0.0206
     60  CE        12.7210    5.5040   23.9780 C.3   107  LYS107      0.1093
     61  NZ        13.7100    6.0070   22.9880 N.3   107  LYS107     -0.1314
     62  N          4.8980    3.7490   25.0940 N.3   118  TYR118     -0.1241
     63  CA         4.8570    3.9620   23.6530 C.3   118  TYR118      0.1605
     64  C          3.6840    3.1540   23.1020 C.2   118  TYR118      0.2264
     65  O          2.9260    3.6230   22.2520 O.2   118  TYR118     -0.2867
     66  CB         6.1770    3.5350   23.0080 C.3   118  TYR118      0.0534
     67  CG         7.0900    4.7040   22.7120 C.ar  118  TYR118     -0.0201
     68  CD1        6.9080    5.4710   21.5630 C.ar  118  TYR118     -0.0009
     69  CD2        8.1170    5.0680   23.5920 C.ar  118  TYR118     -0.0009
     70  CE1        7.7160    6.5690   21.2920 C.ar  118  TYR118      0.0417
     71  CE2        8.9350    6.1740   23.3270 C.ar  118  TYR118      0.0417
     72  CZ         8.7280    6.9190   22.1750 C.ar  118  TYR118      0.1957
     73  OH         9.5340    8.0060   21.8830 O.3   118  TYR118     -0.2866
     74  N          7.5110   14.2830   18.8740 N.3   144  GLN144     -0.1231
     75  CA         8.4620   13.2050   18.6350 C.3   144  GLN144      0.1698
     76  C          7.9230   11.7950   18.8390 C.2   144  GLN144      0.2592
     77  O          8.0310   10.9540   17.9500 O.2   144  GLN144     -0.2718
     78  CB         9.7280   13.4150   19.4710 C.3   144  GLN144      0.0381
     79  CG        10.7660   12.3300   19.2640 C.3   144  GLN144      0.0905
     80  CD        12.0780   12.6130   19.9570 C.2   144  GLN144      0.2608
     81  OE1       13.1420   12.4020   19.3830 O.2   144  GLN144     -0.2717
     82  NE2       12.0150   13.0370   21.2080 N.am  144  GLN144     -0.0878
     83  N          7.3530   11.5290   20.0080 N.am  145  ALA145     -0.1980
     84  CA         6.8290   10.1960   20.2820 C.3   145  ALA145      0.1597
     85  C          5.6880    9.8410   19.3270 C.2   145  ALA145      0.2287
     86  O          5.7020    8.7620   18.7280 O.2   145  ALA145     -0.2864
     87  CB         6.3850   10.0800   21.7340 C.3   145  ALA145      0.0319
     88  N          6.8580    9.3050   15.8450 N.3   148  ARG148     -0.1245
     89  CA         7.5380    8.0160   15.7650 C.3   148  ARG148      0.1563
     90  C          6.5630    6.8670   15.5710 C.2   148  ARG148      0.2260
     91  O          6.8560    5.9170   14.8500 O.2   148  ARG148     -0.2867
     92  CB         8.3450    7.7550   17.0290 C.3   148  ARG148      0.0307
     93  CG         9.6860    8.4220   17.0450 C.3   148  ARG148      0.0489
     94  CD        10.4800    7.9320   18.2220 C.3   148  ARG148      0.2205
     95  NE        11.7800    8.5710   18.2500 N.pl3 148  ARG148     -0.0865
     96  CZ        12.3330    9.1100   19.3290 C.cat 148  ARG148      0.5346
     97  NH1       11.6950    9.0820   20.4910 N.pl3 148  ARG148      0.1354
     98  NH2       13.5180    9.6930   19.2320 N.pl3 148  ARG148      0.1354
@<TRIPOS>BOND
     1    91    90    2
     2    90    89    1
     3    89    88    1
     4    89    92    1
     5    92    93    1
     6    93    94    1
     7    77    76    2
     8    94    95    1
     9    95    96    2
    10    75    76    1
    11    75    74    1
    12    75    78    1
    13    86    85    2
    14    76    83   am
    15    98    96    1
    16    79    78    1
    17    79    80    1
    18    85    84    1
    19    96    97    1
    20    81    80    2
    21    80    82   am
    22    83    84    1
    23    84    87    1
    24    70    68   ar
    25    70    72   ar
    26    68    67   ar
    27    73    72    1
    28    20    19   ar
    29    21    19   ar
    30    72    71   ar
    31    65    64    2
    32    19    18    1
    33    67    66    1
    34    67    69   ar
    35    13    14    1
    36    61    60    1
    37    66    63    1
    38    64    63    1
    39    14    17    1
    40    14    15    1
    41    71    69   ar
    42    17    18    1
    43    63    62    1
    44    60    59    1
    45    15    22   am
    46    15    16    2
    47    22    23    1
    48    59    58    1
    49    26    28    1
    50    26    23    1
    51    26    27    1
    52    23    24    1
    53    58    57    1
    54    57    54    1
    55    29    27    1
    56    55    56    2
    57    55    54    1
    58    41    40    1
    59    54    53    1
    60    52    50    1
    61    24    25    2
    62    39    40   ar
    63    39    37   ar
    64    12    11    2
    65    40    38   ar
    66    50    51    1
    67    50    49    2
    68     9    10    1
    69     9     3   am
    70    10    11    1
    71     7     5    1
    72    49    48    1
    73    37    35   ar
    74     2     5    1
    75     2     3    1
    76     2     1    1
    77     5     6    1
    78     3     4    2
    79    38    36   ar
    80    45    44    2
    81    48    47    1
    82    35    36   ar
    83    35    34    1
    84    47    46    1
    85    44    43    1
    86     6     8    1
    87    34    31    1
    88    46    43    1
    89    43    42    1
    90    30    31    1
    91    31    32    1
    92    32    33    2
