@<TRIPOS>MOLECULE
tmp/1c80A00.pdb
 141 133 0 0 0
SMALL
GASTEIGER

@<TRIPOS>ATOM
      1  N          0.3830   23.3250   52.8420 N.3    20  ILE20      -0.1231
      2  CA         0.8090   22.4570   53.9220 C.3    20  ILE20       0.1692
      3  C          1.9900   23.0490   54.6760 C.2    20  ILE20       0.2592
      4  O          2.7160   23.8850   54.1430 O.2    20  ILE20      -0.2718
      5  CB         1.1950   21.0740   53.3680 C.3    20  ILE20       0.0266
      6  CG1        2.3680   21.2010   52.3960 C.3    20  ILE20       0.0019
      7  CG2       -0.0030   20.4600   52.6550 C.3    20  ILE20       0.0020
      8  CD1        2.8480   19.8810   51.8460 C.3    20  ILE20       0.0001
      9  N          2.1900   22.5890   55.9060 N.am   21  GLY21      -0.1957
     10  CA         3.2920   23.0790   56.7100 C.3    21  GLY21       0.1869
     11  C          3.2260   24.5580   57.0420 C.2    21  GLY21       0.2309
     12  O          2.1430   25.1310   57.2200 O.2    21  GLY21      -0.2863
     13  N          4.1890   19.8570   63.8140 N.3    78  GLU78      -0.1231
     14  CA         3.7080   19.1070   62.6600 C.3    78  GLU78       0.1699
     15  C          4.8380   18.5390   61.8260 C.2    78  GLU78       0.2592
     16  O          5.9440   19.0920   61.7900 O.2    78  GLU78      -0.2718
     17  CB         2.7940   19.9730   61.7840 C.3    78  GLU78       0.0402
     18  CG         2.1330   19.2400   60.6100 C.3    78  GLU78       0.1161
     19  CD         1.2550   18.0630   61.0240 C.2    78  GLU78       0.3649
     20  OE1        1.6680   17.2140   61.8400 O.co2  78  GLU78      -0.2457
     21  OE2        0.1180   17.9770   60.5390 O.co2  78  GLU78      -0.2457
     22  N          4.5450   17.4200   61.1730 N.am   79  ILE79      -0.1980
     23  CA         5.4870   16.7260   60.3140 C.3    79  ILE79       0.1595
     24  C          6.0320   17.6910   59.2570 C.2    79  ILE79       0.2287
     25  O          5.2750   18.4400   58.6210 O.2    79  ILE79      -0.2864
     26  CB         4.8060   15.4850   59.6770 C.3    79  ILE79       0.0276
     27  CG1        5.7680   14.6870   58.8040 C.3    79  ILE79       0.0022
     28  CG2        3.6350   15.8980   58.8550 C.3    79  ILE79       0.0022
     29  CD1        5.0850   13.5210   58.1090 C.3    79  ILE79       0.0001
     30  N          7.4450   18.9940   55.8970 N.3    81  ALA81      -0.1245
     31  CA         7.2530   18.6960   54.4790 C.3    81  ALA81       0.1562
     32  C          8.5060   18.9590   53.6750 C.2    81  ALA81       0.2260
     33  O          8.5100   18.8320   52.4490 O.2    81  ALA81      -0.2867
     34  CB         6.1140   19.4950   53.9180 C.3    81  ALA81       0.0290
     35  N         -1.1010   21.0210   46.7990 N.3    89  TYR89      -0.1241
     36  CA        -0.9410   19.6690   46.2430 C.3    89  TYR89       0.1605
     37  C         -0.7800   19.7420   44.7230 C.2    89  TYR89       0.2264
     38  O         -0.2860   18.7790   44.1170 O.2    89  TYR89      -0.2867
     39  CB        -2.1660   18.8210   46.5710 C.3    89  TYR89       0.0534
     40  CG        -2.8670   20.1730   46.6180 C.ar   89  TYR89      -0.0201
     41  CD1       -3.0460   20.9050   45.4390 C.ar   89  TYR89      -0.0009
     42  CD2       -3.3260   20.6800   47.8380 C.ar   89  TYR89      -0.0009
     43  CE1       -3.6830   22.1480   45.4800 C.ar   89  TYR89       0.0417
     44  CE2       -3.9650   21.9240   47.8790 C.ar   89  TYR89       0.0417
     45  CZ        -4.1420   22.6570   46.6990 C.ar   89  TYR89       0.1957
     46  OH        -4.7610   23.8670   46.7400 O.3    89  TYR89      -0.2866
     47  N          3.0610   20.6690   44.2100 N.3    92  ILE92      -0.1245
     48  CA         3.8730   19.4850   44.4620 C.3    92  ILE92       0.1561
     49  C          3.8580   18.5940   43.2260 C.2    92  ILE92       0.2260
     50  O          4.9080   18.1940   42.7320 O.2    92  ILE92      -0.2867
     51  CB         3.3740   18.6960   45.6920 C.3    92  ILE92       0.0252
     52  CG1        3.5460   19.5450   46.9510 C.3    92  ILE92       0.0019
     53  CG2        4.1560   17.3920   45.8400 C.3    92  ILE92       0.0019
     54  CD1        2.9790   18.9130   48.1960 C.3    92  ILE92       0.0001
     55  N          5.4400   12.8340   44.3750 N.3   100  PHE100     -0.1241
     56  CA         4.0170   12.6720   44.6290 C.3   100  PHE100      0.1605
     57  C          3.5500   11.2390   44.3830 C.2   100  PHE100      0.2264
     58  O          2.8270   10.6690   45.1990 O.2   100  PHE100     -0.2867
     59  CB         3.2240   13.6630   43.7750 C.3   100  PHE100      0.0534
     60  CG         1.7840   13.7720   44.1660 C.ar  100  PHE100     -0.0203
     61  CD1        1.4290   14.3370   45.3810 C.ar  100  PHE100     -0.0042
     62  CD2        0.7820   13.2770   43.3380 C.ar  100  PHE100     -0.0042
     63  CE1        0.0930   14.4030   45.7680 C.ar  100  PHE100     -0.0003
     64  CE2       -0.5540   13.3400   43.7170 C.ar  100  PHE100     -0.0003
     65  CZ        -0.8990   13.9030   44.9380 C.ar  100  PHE100     -0.0000
     66  N          4.9450    8.6660   47.0090 N.3   103  ARG103     -0.1245
     67  CA         4.2370    8.7570   48.2780 C.3   103  ARG103      0.1563
     68  C          3.0070    7.8620   48.3020 C.2   103  ARG103      0.2260
     69  O          2.6870    7.2570   49.3280 O.2   103  ARG103     -0.2867
     70  CB         3.8290   10.2100   48.5550 C.3   103  ARG103      0.0307
     71  CG         2.8480   10.3810   49.7110 C.3   103  ARG103      0.0489
     72  CD         2.8260   11.8170   50.1990 C.3   103  ARG103      0.2205
     73  NE         1.5610   12.1610   50.8430 N.pl3 103  ARG103     -0.0865
     74  CZ         0.5380   12.7270   50.2070 C.cat 103  ARG103      0.5346
     75  NH1        0.6340   13.0100   48.9100 N.pl3 103  ARG103      0.1354
     76  NH2       -0.5880   12.9890   50.8610 N.pl3 103  ARG103      0.1354
     77  N          2.2880    5.7230   52.1810 N.3   107  LYS107     -0.1245
     78  CA         2.0830    7.0310   52.8080 C.3   107  LYS107      0.1561
     79  C          2.7500    7.1060   54.1780 C.2   107  LYS107      0.2260
     80  O          3.0270    8.1910   54.6780 O.2   107  LYS107     -0.2867
     81  CB         0.5890    7.3170   52.9810 C.3   107  LYS107      0.0271
     82  CG        -0.2730    7.1280   51.7370 C.3   107  LYS107      0.0035
     83  CD        -0.1820    8.2930   50.7650 C.3   107  LYS107      0.0206
     84  CE        -1.5750    8.7220   50.3240 C.3   107  LYS107      0.1093
     85  NZ        -1.5830    9.5830   49.1120 N.3   107  LYS107     -0.1314
     86  N          9.5270   13.3720   52.7580 N.3   112  TYR112     -0.1241
     87  CA         9.7300   14.5320   51.9030 C.3   112  TYR112      0.1605
     88  C         11.1970   14.8470   51.7360 C.2   112  TYR112      0.2264
     89  O         12.0120   14.5400   52.6070 O.2   112  TYR112     -0.2867
     90  CB         9.0460   15.7520   52.5040 C.3   112  TYR112      0.0534
     91  CG         7.5720   15.5830   52.5410 C.ar  112  TYR112     -0.0201
     92  CD1        6.8020   15.8620   51.4170 C.ar  112  TYR112     -0.0009
     93  CD2        6.9500   15.0340   53.6590 C.ar  112  TYR112     -0.0009
     94  CE1        5.4630   15.5800   51.3960 C.ar  112  TYR112      0.0417
     95  CE2        5.6120   14.7460   53.6500 C.ar  112  TYR112      0.0417
     96  CZ         4.8820   15.0130   52.5100 C.ar  112  TYR112      0.1957
     97  OH         3.5880   14.6180   52.4540 O.3   112  TYR112     -0.2866
     98  N          5.9580    9.7610   58.3380 N.3   118  TYR118     -0.1241
     99  CA         5.0880    9.4150   59.4530 C.3   118  TYR118      0.1605
    100  C          5.8960    8.5470   60.4070 C.2   118  TYR118      0.2264
    101  O          5.7360    8.6240   61.6250 O.2   118  TYR118     -0.2867
    102  CB         3.8520    8.6630   58.9590 C.3   118  TYR118      0.0534
    103  CG         2.6470    9.5520   58.7400 C.ar  118  TYR118     -0.0201
    104  CD1        1.9610   10.1010   59.8230 C.ar  118  TYR118     -0.0009
    105  CD2        2.1770    9.8270   57.4550 C.ar  118  TYR118     -0.0009
    106  CE1        0.8340   10.8940   59.6350 C.ar  118  TYR118      0.0417
    107  CE2        1.0510   10.6230   57.2570 C.ar  118  TYR118      0.0417
    108  CZ         0.3800   11.1500   58.3530 C.ar  118  TYR118      0.1957
    109  OH        -0.7630   11.9010   58.1640 O.3   118  TYR118     -0.2866
    110  N         -2.4750   17.8580   62.1800 N.3   144  GLN144     -0.1231
    111  CA        -3.0470   16.6890   61.5110 C.3   144  GLN144      0.1698
    112  C         -2.2750   15.3750   61.6500 C.2   144  GLN144      0.2592
    113  O         -2.8000   14.4100   62.2050 O.2   144  GLN144     -0.2718
    114  CB        -3.3400   16.9850   60.0320 C.3   144  GLN144      0.0381
    115  CG        -4.2430   15.9300   59.3940 C.3   144  GLN144      0.0905
    116  CD        -4.8140   16.3370   58.0460 C.2   144  GLN144      0.2608
    117  OE1       -4.0810   16.5510   57.0800 O.2   144  GLN144     -0.2717
    118  NE2       -6.1400   16.3910   57.9640 N.am  144  GLN144     -0.0878
    119  N         -1.0450   15.3280   61.1470 N.am  145  ALA145     -0.1980
    120  CA        -0.2400   14.1070   61.2220 C.3   145  ALA145      0.1597
    121  C          0.0070   13.6820   62.6620 C.2   145  ALA145      0.2287
    122  O         -0.0820   12.4980   62.9950 O.2   145  ALA145     -0.2864
    123  CB         1.0680   14.2990   60.5030 C.3   145  ALA145      0.0319
    124  N         -3.0100   12.1250   64.2320 N.3   148  ARG148     -0.1245
    125  CA        -3.2210   10.8010   63.6770 C.3   148  ARG148      0.1563
    126  C         -2.3530    9.7870   64.4040 C.2   148  ARG148      0.2260
    127  O         -2.8400    8.7350   64.8160 O.2   148  ARG148     -0.2867
    128  CB        -2.8960   10.7850   62.1890 C.3   148  ARG148      0.0307
    129  CG        -3.9550   11.4500   61.3410 C.3   148  ARG148      0.0489
    130  CD        -3.6420   11.2850   59.8850 C.3   148  ARG148      0.2205
    131  NE        -4.7630   11.6870   59.0490 N.pl3 148  ARG148     -0.0865
    132  CZ        -4.6470   12.4740   57.9900 C.cat 148  ARG148      0.5346
    133  NH1       -3.4570   12.9520   57.6520 N.pl3 148  ARG148      0.1354
    134  NH2       -5.7070   12.7390   57.2420 N.pl3 148  ARG148      0.1354
    135  N         -2.1520    6.9660   58.2870 N.3   163  PRO163     -0.2116
    136  CA        -2.2660    8.1800   57.4730 C.3   163  PRO163      0.1372
    137  C         -3.6710    8.5120   56.9560 C.2   163  PRO163      0.2244
    138  O         -3.8870    9.6020   56.4250 O.2   163  PRO163     -0.2868
    139  CB        -1.3110    7.9050   56.3060 C.3   163  PRO163      0.0268
    140  CG        -0.3550    6.8970   56.8570 C.3   163  PRO163      0.0207
    141  CD        -1.2680    5.9950   57.6190 C.3   163  PRO163      0.0892
@<TRIPOS>BOND
     1    50    49    2
     2    49    48    1
     3    62    64   ar
     4    62    60   ar
     5    64    65   ar
     6    59    60    1
     7    59    56    1
     8    38    37    2
     9    60    61   ar
    10    47    48    1
    11    55    56    1
    12    57    56    1
    13    57    58    2
    14    48    51    1
    15    37    36    1
    16    65    63   ar
    17    61    63   ar
    18    41    43   ar
    19    41    40   ar
    20    43    45   ar
    21    51    53    1
    22    51    52    1
    23    36    39    1
    24    36    35    1
    25    39    40    1
    26    40    42   ar
    27    45    46    1
    28    45    44   ar
    29    52    54    1
    30    66    67    1
    31    42    44   ar
    32    67    68    1
    33    67    70    1
    34    68    69    2
    35    70    71    1
    36    75    74    1
    37    85    84    1
    38    71    72    1
    39    72    73    1
    40    74    73    2
    41    74    76    1
    42    84    83    1
    43    83    82    1
    44    94    92   ar
    45    94    96   ar
    46    92    91   ar
    47    88    87    1
    48    88    89    2
    49    82    81    1
    50     8     6    1
    51    87    90    1
    52    87    86    1
    53    77    78    1
    54     6     5    1
    55    33    32    2
    56    97    96    1
    57    90    91    1
    58    96    95   ar
    59    91    93   ar
    60     7     5    1
    61    78    81    1
    62    78    79    1
    63     1     2    1
    64     5     2    1
    65    95    93   ar
    66    32    31    1
    67    34    31    1
    68     2     3    1
    69     4     3    2
    70    79    80    2
    71    31    30    1
    72     3     9   am
    73     9    10    1
    74   139   140    1
    75   139   136    1
    76   138   137    2
    77    10    11    1
    78   140   141    1
    79   137   136    1
    80    11    12    2
    81   117   116    2
    82   134   132    1
    83   107   105   ar
    84   107   108   ar
    85   105   103   ar
    86   136   135    1
    87   141   135    1
    88   133   132    1
    89   118   116   am
    90   132   131    2
    91   116   115    1
    92    29    27    1
    93   109   108    1
    94    98    99    1
    95   108   106   ar
    96    25    24    2
    97   103   102    1
    98   103   104   ar
    99    27    26    1
   100    28    26    1
   101   102    99    1
   102   131   130    1
   103    24    23    1
   104   115   114    1
   105    99   100    1
   106   106   104   ar
   107    26    23    1
   108   130   129    1
   109   114   111    1
   110    23    22    1
   111   100   101    2
   112   123   120    1
   113    21    19   ar
   114    18    19    1
   115    18    17    1
   116    19    20   ar
   117   119   120    1
   118   119   112   am
   119    22    15   am
   120   120   121    1
   121   129   128    1
   122   111   112    1
   123   111   110    1
   124   112   113    2
   125    17    14    1
   126    16    15    2
   127    15    14    1
   128   128   125    1
   129    14    13    1
   130   121   122    2
   131   125   124    1
   132   125   126    1
   133   126   127    2
