@<TRIPOS>MOLECULE
tmp/1c81A00.pdb
 163 156 0 0 0
SMALL
GASTEIGER

@<TRIPOS>ATOM
      1  N        -58.6370   22.2740   33.7380 N.3     8  ARG8       -0.1231
      2  CA       -57.3700   22.9170   34.0250 C.3     8  ARG8        0.1694
      3  C        -57.5770   24.4410   34.0390 C.2     8  ARG8        0.2592
      4  O        -58.5720   24.9550   33.5300 O.2     8  ARG8       -0.2718
      5  CB       -56.3380   22.4690   32.9700 C.3     8  ARG8        0.0321
      6  CG       -54.9910   23.1810   32.9940 C.3     8  ARG8        0.0489
      7  CD       -53.8100   22.2460   32.6930 C.3     8  ARG8        0.2205
      8  NE       -53.7710   21.7410   31.3170 N.pl3   8  ARG8       -0.0865
      9  CZ       -52.9060   22.1110   30.3860 C.cat   8  ARG8        0.5346
     10  NH1      -51.9910   23.0150   30.6730 N.pl3   8  ARG8        0.1354
     11  NH2      -52.9590   21.5460   29.1870 N.pl3   8  ARG8        0.1354
     12  N        -56.6920   25.1410   34.7300 N.am    9  HIS9       -0.1976
     13  CA       -56.7350   26.5940   34.8120 C.3     9  HIS9        0.1656
     14  C        -56.7110   27.1890   33.3990 C.2     9  HIS9        0.2291
     15  O        -56.2430   26.5480   32.4490 O.2     9  HIS9       -0.2864
     16  CB       -55.4820   27.0750   35.5270 C.3     9  HIS9        0.0771
     17  CG       -54.2280   26.7490   34.7830 C.ar    9  HIS9        0.0820
     18  ND1      -53.6430   27.6250   33.8950 N.ar    9  HIS9       -0.2267
     19  CD2      -53.5010   25.6080   34.7150 C.ar    9  HIS9        0.1154
     20  CE1      -52.6180   27.0390   33.3080 C.ar    9  HIS9        0.1986
     21  NE2      -52.5090   25.8160   33.7870 N.ar    9  HIS9       -0.2212
     22  N        -52.0500   30.3510   30.9870 N.3    12  SER12      -0.1217
     23  CA       -51.2230   31.3050   31.7140 C.3    12  SER12       0.1889
     24  C        -50.2150   32.0100   30.8250 C.2    12  SER12       0.2288
     25  O        -49.9500   31.5770   29.6990 O.2    12  SER12      -0.2866
     26  CB       -50.4940   30.5940   32.8540 C.3    12  SER12       0.2089
     27  OG       -49.7310   29.4980   32.3740 O.3    12  SER12      -0.2183
     28  N        -47.7030   29.5570   29.8610 N.3    15  ASN15      -0.1240
     29  CA       -48.1750   28.5150   28.9400 C.3    15  ASN15       0.1653
     30  C        -48.0220   29.0650   27.5080 C.2    15  ASN15       0.2266
     31  O        -47.5920   28.3540   26.6030 O.2    15  ASN15      -0.2867
     32  CB       -49.6560   28.1600   29.1960 C.3    15  ASN15       0.1155
     33  CG       -49.8620   27.0100   30.2190 C.2    15  ASN15       0.2627
     34  OD1      -50.9290   26.9140   30.8150 O.2    15  ASN15      -0.2716
     35  ND2      -48.9040   26.0890   30.3250 N.am   15  ASN15      -0.0877
     36  N        -43.4740   27.5480   28.3360 N.3    19  ARG19      -0.1231
     37  CA       -42.6630   27.2010   29.5010 C.3    19  ARG19       0.1694
     38  C        -43.4230   26.4100   30.5750 C.2    19  ARG19       0.2592
     39  O        -44.6460   26.5020   30.6680 O.2    19  ARG19      -0.2718
     40  CB       -42.0200   28.4630   30.0630 C.3    19  ARG19       0.0321
     41  CG       -41.0480   29.0530   29.0610 C.3    19  ARG19       0.0489
     42  CD       -40.4600   30.3770   29.4690 C.3    19  ARG19       0.2205
     43  NE       -39.4650   30.7930   28.4900 N.pl3  19  ARG19      -0.0865
     44  CZ       -38.1650   30.5190   28.5860 C.cat  19  ARG19       0.5346
     45  NH1      -37.7000   29.8340   29.6270 N.pl3  19  ARG19       0.1354
     46  NH2      -37.3260   30.9160   27.6320 N.pl3  19  ARG19       0.1354
     47  N        -42.7090   25.6000   31.3530 N.am   20  ILE20      -0.1966
     48  CA       -43.3530   24.7870   32.3890 C.3    20  ILE20       0.1727
     49  C        -43.2020   25.3310   33.8130 C.2    20  ILE20       0.2616
     50  O        -42.2870   26.1030   34.0990 O.2    20  ILE20      -0.2715
     51  CB       -42.8560   23.3180   32.3750 C.3    20  ILE20       0.0290
     52  CG1      -41.4500   23.2130   32.9600 C.3    20  ILE20       0.0022
     53  CG2      -42.8390   22.7760   30.9680 C.3    20  ILE20       0.0023
     54  CD1      -41.0020   21.7710   33.1930 C.3    20  ILE20       0.0001
     55  N        -44.1030   24.9120   34.6980 N.am   21  GLY21      -0.1955
     56  CA       -44.0570   25.3410   36.0860 C.3    21  GLY21       0.1869
     57  C        -44.3740   26.8020   36.3240 C.2    21  GLY21       0.2309
     58  O        -45.1630   27.3990   35.5870 O.2    21  GLY21      -0.2863
     59  N        -52.9390   31.0790   38.6200 N.3    58  ARG58      -0.1245
     60  CA       -53.7010   30.6350   37.4590 C.3    58  ARG58       0.1563
     61  C        -55.0350   29.9460   37.7600 C.2    58  ARG58       0.2260
     62  O        -56.0340   30.1890   37.0730 O.2    58  ARG58      -0.2867
     63  CB       -52.8260   29.7980   36.5050 C.3    58  ARG58       0.0307
     64  CG       -52.1140   28.5710   37.0770 C.3    58  ARG58       0.0489
     65  CD       -50.8500   28.3200   36.2570 C.3    58  ARG58       0.2205
     66  NE       -50.1810   27.0370   36.4870 N.pl3  58  ARG58      -0.0865
     67  CZ       -49.1420   26.8590   37.3000 C.cat  58  ARG58       0.5346
     68  NH1      -48.6450   27.8700   37.9910 N.pl3  58  ARG58       0.1354
     69  NH2      -48.5570   25.6750   37.3750 N.pl3  58  ARG58       0.1354
     70  N        -49.4210   22.1570   41.2040 N.3    78  GLU78      -0.1231
     71  CA       -48.7700   21.4390   40.1160 C.3    78  GLU78       0.1699
     72  C        -47.4510   20.8050   40.5230 C.2    78  GLU78       0.2592
     73  O        -46.7710   21.2760   41.4400 O.2    78  GLU78      -0.2718
     74  CB       -48.5650   22.3460   38.9000 C.3    78  GLU78       0.0402
     75  CG       -47.9460   21.6540   37.6650 C.3    78  GLU78       0.1161
     76  CD       -48.8050   20.5420   37.0880 C.2    78  GLU78       0.3649
     77  OE1      -49.2700   19.6690   37.8460 O.co2  78  GLU78      -0.2457
     78  OE2      -49.0210   20.5280   35.8650 O.co2  78  GLU78      -0.2457
     79  N        -47.1350   19.6940   39.8680 N.am   79  ILE79      -0.1980
     80  CA       -45.9090   18.9550   40.1050 C.3    79  ILE79       0.1595
     81  C        -44.7140   19.9260   40.0810 C.2    79  ILE79       0.2287
     82  O        -44.6560   20.8310   39.2530 O.2    79  ILE79      -0.2864
     83  CB       -45.7610   17.8500   39.0260 C.3    79  ILE79       0.0276
     84  CG1      -44.5140   17.0060   39.2570 C.3    79  ILE79       0.0022
     85  CG2      -45.7370   18.4660   37.6370 C.3    79  ILE79       0.0022
     86  CD1      -44.3800   15.8610   38.2820 C.3    79  ILE79       0.0001
     87  N        -35.5590   10.7810   31.6570 N.3   103  ARG103     -0.1245
     88  CA       -37.0010   10.9490   31.8140 C.3   103  ARG103      0.1563
     89  C        -37.8020   10.1920   30.7570 C.2   103  ARG103      0.2260
     90  O        -38.8830    9.6790   31.0470 O.2   103  ARG103     -0.2867
     91  CB       -37.3670   12.4390   31.7800 C.3   103  ARG103      0.0307
     92  CG       -38.8580   12.7480   31.6470 C.3   103  ARG103      0.0489
     93  CD       -39.0990   14.2360   31.8180 C.3   103  ARG103      0.2205
     94  NE       -40.3670   14.6850   31.2500 N.pl3 103  ARG103     -0.0865
     95  CZ       -40.5020   15.2220   30.0360 C.cat 103  ARG103      0.5346
     96  NH1      -39.4450   15.3780   29.2420 N.pl3 103  ARG103      0.1354
     97  NH2      -41.6990   15.6200   29.6180 N.pl3 103  ARG103      0.1354
     98  N        -37.6350   15.2270   38.7840 N.3   112  TYR112     -0.1241
     99  CA       -36.7890   16.3530   38.3980 C.3   112  TYR112      0.1605
    100  C        -35.7900   16.6810   39.5140 C.2   112  TYR112      0.2264
    101  O        -36.0470   16.4010   40.6930 O.2   112  TYR112     -0.2867
    102  CB       -37.6550   17.5920   38.1240 C.3   112  TYR112      0.0534
    103  CG       -38.4210   17.6070   36.8060 C.ar  112  TYR112     -0.0201
    104  CD1      -37.8900   18.2330   35.6810 C.ar  112  TYR112     -0.0009
    105  CD2      -39.7020   17.0620   36.7090 C.ar  112  TYR112     -0.0009
    106  CE1      -38.6120   18.3250   34.4970 C.ar  112  TYR112      0.0417
    107  CE2      -40.4320   17.1490   35.5290 C.ar  112  TYR112      0.0417
    108  CZ       -39.8820   17.7830   34.4230 C.ar  112  TYR112      0.1957
    109  OH       -40.5970   17.8840   33.2420 O.3   112  TYR112     -0.2866
    110  N        -44.4450   12.0100   39.1330 N.3   118  TYR118     -0.1241
    111  CA       -45.8660   11.6710   39.1050 C.3   118  TYR118      0.1605
    112  C        -46.1330   10.7940   40.3190 C.2   118  TYR118      0.2264
    113  O        -47.1840   10.8790   40.9440 O.2   118  TYR118     -0.2867
    114  CB       -46.2400   10.9110   37.8220 C.3   118  TYR118      0.0534
    115  CG       -46.6740   11.8010   36.6670 C.ar  118  TYR118     -0.0201
    116  CD1      -47.9860   12.2630   36.5720 C.ar  118  TYR118     -0.0009
    117  CD2      -45.7680   12.1920   35.6770 C.ar  118  TYR118     -0.0009
    118  CE1      -48.3850   13.0880   35.5230 C.ar  118  TYR118      0.0417
    119  CE2      -46.1590   13.0210   34.6240 C.ar  118  TYR118      0.0417
    120  CZ       -47.4670   13.4630   34.5540 C.ar  118  TYR118      0.1957
    121  OH       -47.8690   14.2880   33.5240 O.3   118  TYR118     -0.2866
    122  N        -54.2560   21.5970   37.3680 N.3   143  HIS143     -0.1226
    123  CA       -53.1880   21.6980   36.3810 C.3   143  HIS143      0.1752
    124  C        -53.0570   20.4010   35.5820 C.2   143  HIS143      0.2596
    125  O        -53.7080   19.4140   35.9100 O.2   143  HIS143     -0.2718
    126  CB       -51.8730   22.0050   37.1040 C.3   143  HIS143      0.0759
    127  CG       -52.0050   23.0020   38.2110 C.ar  143  HIS143      0.0818
    128  ND1      -51.6570   24.3280   38.0670 N.ar  143  HIS143     -0.2268
    129  CD2      -52.4730   22.8770   39.4800 C.ar  143  HIS143      0.1154
    130  CE1      -51.9130   24.9750   39.1900 C.ar  143  HIS143      0.1986
    131  NE2      -52.4060   24.1200   40.0620 N.ar  143  HIS143     -0.2212
    132  N        -52.1620   20.3740   34.5930 N.am  144  GLN144     -0.1965
    133  CA       -52.0030   19.1910   33.7510 C.3   144  GLN144      0.1733
    134  C        -51.5830   17.8890   34.4210 C.2   144  GLN144      0.2616
    135  O        -52.2050   16.8570   34.1850 O.2   144  GLN144     -0.2715
    136  CB       -51.0830   19.4480   32.5570 C.3   144  GLN144      0.0408
    137  CG       -50.9570   18.2130   31.6600 C.3   144  GLN144      0.0908
    138  CD       -50.4890   18.5150   30.2530 C.2   144  GLN144      0.2608
    139  OE1      -49.3020   18.5720   29.9800 O.2   144  GLN144     -0.2717
    140  NE2      -51.4330   18.6520   29.3390 N.am  144  GLN144     -0.0878
    141  N        -50.5180   17.9120   35.2170 N.am  145  ALA145     -0.1977
    142  CA       -50.0590   16.6840   35.8710 C.3   145  ALA145      0.1597
    143  C        -51.0220   16.2240   36.9620 C.2   145  ALA145      0.2287
    144  O        -51.2250   15.0250   37.1600 O.2   145  ALA145     -0.2864
    145  CB       -48.6550   16.8580   36.4310 C.3   145  ALA145      0.0319
    146  N        -54.2060   14.6220   35.4800 N.3   148  ARG148     -0.1245
    147  CA       -53.9650   13.2870   34.9530 C.3   148  ARG148      0.1563
    148  C        -53.9970   12.2400   36.0510 C.2   148  ARG148      0.2260
    149  O        -54.4850   11.1300   35.8400 O.2   148  ARG148     -0.2867
    150  CB       -52.6190   13.2200   34.2420 C.3   148  ARG148      0.0307
    151  CG       -52.6090   13.8220   32.8760 C.3   148  ARG148      0.0489
    152  CD       -51.2540   13.6260   32.2520 C.3   148  ARG148      0.2205
    153  NE       -51.2050   14.1170   30.8920 N.pl3 148  ARG148     -0.0865
    154  CZ       -50.2890   14.9590   30.4300 C.cat 148  ARG148      0.5346
    155  NH1      -49.3420   15.3920   31.2450 N.pl3 148  ARG148      0.1354
    156  NH2      -50.3220   15.3390   29.1680 N.pl3 148  ARG148      0.1354
    157  N        -49.0890    9.2640   32.6270 N.3   163  PRO163     -0.2116
    158  CA       -48.4510   10.4790   32.1160 C.3   163  PRO163      0.1372
    159  C        -48.7620   10.8530   30.6610 C.2   163  PRO163      0.2244
    160  O        -48.2720   11.8720   30.1750 O.2   163  PRO163     -0.2868
    161  CB       -46.9600   10.1800   32.3070 C.3   163  PRO163      0.0268
    162  CG       -46.9400    9.2130   33.4590 C.3   163  PRO163      0.0207
    163  CD       -48.0610    8.3000   33.0620 C.3   163  PRO163      0.0892
@<TRIPOS>BOND
     1    31    30    2
     2    30    29    1
     3    46    44    1
     4    36    37    1
     5    43    44    2
     6    43    42    1
     7    44    45    1
     8    29    32    1
     9    29    28    1
    10    41    42    1
    11    41    40    1
    12   156   154    1
    13    11     9    1
    14    32    33    1
    15    96    95    1
    16   140   138   am
    17    37    40    1
    18    37    38    1
    19    97    95    1
    20    25    24    2
    21   139   138    2
    22    95    94    2
    23   160   159    2
    24    33    35   am
    25    33    34    2
    26   138   137    1
    27     9    10    1
    28     9     8    2
    29   154   153    2
    30   154   155    1
    31    38    39    2
    32    38    47   am
    33   159   158    1
    34    89    90    2
    35    89    88    1
    36    24    23    1
    37   153   152    1
    38    53    51    1
    39    22    23    1
    40    94    93    1
    41     8     7    1
    42    47    48    1
    43    92    91    1
    44    92    93    1
    45    87    88    1
    46   137   136    1
    47    23    26    1
    48    91    88    1
    49   158   161    1
    50   158   157    1
    51   152   151    1
    52   161   162    1
    53    27    26    1
    54    51    48    1
    55    51    52    1
    56    48    49    1
    57    15    14    2
    58   136   133    1
    59   157   163    1
    60     7     6    1
    61   151   150    1
    62    52    54    1
    63     5     6    1
    64     5     2    1
    65   163   162    1
    66   109   108    1
    67    20    21   ar
    68    20    18   ar
    69    14    13    1
    70   121   120    1
    71     4     3    2
    72     1     2    1
    73   133   134    1
    74   133   132    1
    75    21    19   ar
    76    49    50    2
    77    49    55   am
    78    18    17   ar
    79     2     3    1
    80     3    12   am
    81   135   134    2
    82   150   147    1
    83   134   141   am
    84   108   106   ar
    85   108   107   ar
    86   106   104   ar
    87   120   119   ar
    88   120   118   ar
    89   132   124   am
    90   119   117   ar
    91    55    56    1
    92    19    17   ar
    93    12    13    1
    94    17    16    1
    95    13    16    1
    96   147   146    1
    97   147   148    1
    98   141   142    1
    99   118   116   ar
   100   107   105   ar
   101   124   125    2
   102   124   123    1
   103    58    57    2
   104   117   115   ar
   105   104   103   ar
   106   149   148    2
   107    78    76   ar
   108   142   145    1
   109   142   143    1
   110    56    57    1
   111    65    66    1
   112    65    64    1
   113   123   126    1
   114   123   122    1
   115    66    67    2
   116    63    64    1
   117    63    60    1
   118   116   115   ar
   119   115   114    1
   120   105   103   ar
   121   103   102    1
   122   143   144    2
   123    62    61    2
   124    76    75    1
   125    76    77   ar
   126   126   127    1
   127    67    69    1
   128    67    68    1
   129    60    61    1
   130    60    59    1
   131    85    83    1
   132    75    74    1
   133   114   111    1
   134   128   127   ar
   135   128   130   ar
   136   102    99    1
   137   127   129   ar
   138    86    84    1
   139    99    98    1
   140    99   100    1
   141    74    71    1
   142    83    84    1
   143    83    80    1
   144   111   110    1
   145   111   112    1
   146   130   131   ar
   147    82    81    2
   148   129   131   ar
   149   100   101    2
   150    79    80    1
   151    79    72   am
   152    81    80    1
   153    71    72    1
   154    71    70    1
   155   112   113    2
   156    72    73    2
