@<TRIPOS>MOLECULE
tmp/1c82A01.pdb
 143 140 0 0 0
SMALL
GASTEIGER

@<TRIPOS>ATOM
      1  N         20.7700   -3.4140   28.3780 N.3   119  GLY119     -0.1210
      2  CA        19.6820   -3.5160   29.3300 C.3   119  GLY119      0.1956
      3  C         19.1550   -4.9420   29.3290 C.2   119  GLY119      0.2612
      4  O         19.9220   -5.8800   29.5100 O.2   119  GLY119     -0.2717
      5  N         17.8550   -5.1070   29.1040 N.am  120  ASN120     -0.1960
      6  CA        17.2130   -6.4220   29.0910 C.3   120  ASN120      0.1819
      7  C         17.2040   -7.0790   27.7020 C.2   120  ASN120      0.2621
      8  O         16.7440   -6.4840   26.7250 O.2   120  ASN120     -0.2715
      9  CB        15.7770   -6.2800   29.6030 C.3   120  ASN120      0.1195
     10  CG        15.2190   -7.5720   30.1440 C.2   120  ASN120      0.2630
     11  OD1       15.7350   -8.6480   29.8620 O.2   120  ASN120     -0.2716
     12  ND2       14.1550   -7.4710   30.9300 N.am  120  ASN120     -0.0877
     13  N         17.7080   -8.3090   27.6210 N.am  121  TRP121     -0.1960
     14  CA        17.7560   -9.0490   26.3550 C.3   121  TRP121      0.1771
     15  C         16.3470   -9.3030   25.8230 C.2   121  TRP121      0.2619
     16  O         16.1330   -9.3580   24.6090 O.2   121  TRP121     -0.2715
     17  CB        18.4700  -10.4100   26.5350 C.3   121  TRP121      0.0590
     18  CG        17.6720  -11.4110   27.3570 C.ar  121  TRP121      0.0006
     19  CD1       17.7240  -11.5880   28.7110 C.ar  121  TRP121      0.0946
     20  CD2       16.6330  -12.2750   26.8820 C.ar  121  TRP121      0.0152
     21  NE1       16.7780  -12.5010   29.1080 N.ar  121  TRP121     -0.2442
     22  CE2       16.0930  -12.9370   28.0070 C.ar  121  TRP121      0.0810
     23  CE3       16.1040  -12.5530   25.6200 C.ar  121  TRP121      0.0012
     24  CZ2       15.0520  -13.8570   27.9030 C.ar  121  TRP121      0.0191
     25  CZ3       15.0670  -13.4650   25.5160 C.ar  121  TRP121      0.0001
     26  CH2       14.5510  -14.1080   26.6530 C.ar  121  TRP121      0.0015
     27  N         15.3970   -9.4740   26.7420 N.am  122  TRP122     -0.1974
     28  CA        14.0100   -9.7610   26.3880 C.3   122  TRP122      0.1640
     29  C         13.4090   -8.7090   25.4600 C.2   122  TRP122      0.2290
     30  O         12.7040   -9.0530   24.5090 O.2   122  TRP122     -0.2864
     31  CB        13.1570   -9.9010   27.6580 C.3   122  TRP122      0.0576
     32  CG        11.7560  -10.3960   27.3960 C.ar  122  TRP122      0.0006
     33  CD1       11.3240  -11.6950   27.4150 C.ar  122  TRP122      0.0946
     34  CD2       10.6130   -9.5960   27.0640 C.ar  122  TRP122      0.0152
     35  NE1        9.9810  -11.7520   27.1130 N.ar  122  TRP122     -0.2442
     36  CE2        9.5210  -10.4790   26.8910 C.ar  122  TRP122      0.0810
     37  CE3       10.4050   -8.2180   26.8900 C.ar  122  TRP122      0.0012
     38  CZ2        8.2390  -10.0270   26.5550 C.ar  122  TRP122      0.0191
     39  CZ3        9.1270   -7.7700   26.5580 C.ar  122  TRP122      0.0001
     40  CH2        8.0620   -8.6750   26.3970 C.ar  122  TRP122      0.0015
     41  N         19.3760  -15.0220   23.7380 N.3   166  ARG166     -0.1245
     42  CA        20.5840  -14.3320   24.1790 C.3   166  ARG166      0.1563
     43  C         21.7470  -14.8470   23.3500 C.2   166  ARG166      0.2260
     44  O         22.8780  -14.9540   23.8240 O.2   166  ARG166     -0.2867
     45  CB        20.8250  -14.5830   25.6630 C.3   166  ARG166      0.0307
     46  CG        19.8080  -13.8840   26.5470 C.3   166  ARG166      0.0489
     47  CD        20.1460  -14.0270   28.0190 C.3   166  ARG166      0.2205
     48  NE        21.2260  -13.1220   28.3870 N.pl3 166  ARG166     -0.0865
     49  CZ        22.4230  -13.5210   28.7970 C.cat 166  ARG166      0.5346
     50  NH1       22.7010  -14.8130   28.8970 N.pl3 166  ARG166      0.1354
     51  NH2       23.3510  -12.6260   29.0930 N.pl3 166  ARG166      0.1354
     52  N         26.5980  -15.8560   27.0440 N.3   171  ASN171     -0.1240
     53  CA        26.0110  -17.0560   27.6160 C.3   171  ASN171      0.1653
     54  C         24.5430  -17.2090   27.2570 C.2   171  ASN171      0.2266
     55  O         23.6650  -16.8890   28.0530 O.2   171  ASN171     -0.2867
     56  CB        26.1760  -17.0730   29.1480 C.3   171  ASN171      0.1155
     57  CG        26.1270  -15.6870   29.7710 C.2   171  ASN171      0.2627
     58  OD1       26.1200  -14.6710   29.0770 O.2   171  ASN171     -0.2716
     59  ND2       26.0950  -15.6460   31.0980 N.am  171  ASN171     -0.0877
     60  N         20.9290  -19.2080   26.1490 N.3   173  PHE173     -0.1241
     61  CA        20.2270  -20.3070   26.7960 C.3   173  PHE173      0.1605
     62  C         19.2220  -21.0010   25.8920 C.2   173  PHE173      0.2264
     63  O         18.7770  -20.4380   24.8990 O.2   173  PHE173     -0.2867
     64  CB        19.5610  -19.8100   28.0950 C.3   173  PHE173      0.0534
     65  CG        18.3340  -18.9460   27.8900 C.ar  173  PHE173     -0.0203
     66  CD1       17.0650  -19.5190   27.8150 C.ar  173  PHE173     -0.0042
     67  CD2       18.4380  -17.5570   27.8400 C.ar  173  PHE173     -0.0042
     68  CE1       15.9250  -18.7210   27.7030 C.ar  173  PHE173     -0.0003
     69  CE2       17.2990  -16.7560   27.7260 C.ar  173  PHE173     -0.0003
     70  CZ        16.0450  -17.3400   27.6580 C.ar  173  PHE173     -0.0000
     71  N          9.0290  -18.7870   27.0000 N.3   179  ASN179     -0.1240
     72  CA         9.9950  -18.1020   26.1410 C.3   179  ASN179      0.1653
     73  C         10.0500  -18.7290   24.7440 C.2   179  ASN179      0.2266
     74  O         10.2340  -18.0260   23.7530 O.2   179  ASN179     -0.2867
     75  CB        11.3910  -18.1430   26.7670 C.3   179  ASN179      0.1155
     76  CG        11.5360  -17.1850   27.9270 C.2   179  ASN179      0.2627
     77  OD1       12.2940  -17.4390   28.8660 O.2   179  ASN179     -0.2716
     78  ND2       10.8160  -16.0760   27.8720 N.am  179  ASN179     -0.0877
     79  N         12.8160  -27.5450   33.1980 N.3   218  GLU218     -0.1245
     80  CA        11.7070  -26.6610   32.8550 C.3   218  GLU218      0.1567
     81  C         10.6660  -27.3130   31.9570 C.2   218  GLU218      0.2260
     82  O         10.9920  -28.1130   31.0780 O.2   218  GLU218     -0.2867
     83  CB        12.2480  -25.4040   32.1800 C.3   218  GLU218      0.0388
     84  CG        13.4830  -24.8540   32.8490 C.3   218  GLU218      0.1160
     85  CD        14.0210  -23.6210   32.1600 C.2   218  GLU218      0.3649
     86  OE1       14.0240  -23.5940   30.9050 O.co2 218  GLU218     -0.2457
     87  OE2       14.4400  -22.6830   32.8810 O.co2 218  GLU218     -0.2457
     88  N         12.5520  -21.0720   34.7310 N.3   229  HIS229     -0.1226
     89  CA        13.6910  -20.4410   35.3710 C.3   229  HIS229      0.1752
     90  C         14.4270  -21.4200   36.2870 C.2   229  HIS229      0.2596
     91  O         14.7240  -21.1170   37.4480 O.2   229  HIS229     -0.2718
     92  CB        13.2300  -19.2020   36.1270 C.3   229  HIS229      0.0759
     93  CG        13.0230  -18.0180   35.2360 C.ar  229  HIS229      0.0818
     94  ND1       12.7520  -16.7590   35.7190 N.ar  229  HIS229     -0.2268
     95  CD2       13.0820  -17.9020   33.8880 C.ar  229  HIS229      0.1154
     96  CE1       12.6480  -15.9150   34.7070 C.ar  229  HIS229      0.1986
     97  NE2       12.8450  -16.5860   33.5860 N.ar  229  HIS229     -0.2212
     98  N         14.7080  -22.5950   35.7200 N.am  230  THR230     -0.1953
     99  CA        15.4280  -23.6900   36.3700 C.3   230  THR230      0.1897
    100  C         14.6390  -24.4960   37.3940 C.2   230  THR230      0.2313
    101  O         14.4560  -25.6970   37.2350 O.2   230  THR230     -0.2863
    102  CB        16.7390  -23.1870   37.0540 C.3   230  THR230      0.1794
    103  OG1       17.5540  -22.5010   36.0930 O.3   230  THR230     -0.2208
    104  CG2       17.5320  -24.3620   37.6390 C.3   230  THR230      0.0378
    105  N          4.7320  -17.7350   33.4020 N.3   238  TYR238     -0.1241
    106  CA         5.3370  -18.2150   32.1670 C.3   238  TYR238      0.1605
    107  C          4.3640  -19.1820   31.4910 C.2   238  TYR238      0.2264
    108  O          4.2840  -19.2460   30.2610 O.2   238  TYR238     -0.2867
    109  CB         6.7070  -18.8650   32.4390 C.3   238  TYR238      0.0534
    110  CG         7.8070  -17.8200   32.5540 C.ar  238  TYR238     -0.0201
    111  CD1        8.3570  -17.2250   31.4170 C.ar  238  TYR238     -0.0009
    112  CD2        8.1980  -17.3310   33.8020 C.ar  238  TYR238     -0.0009
    113  CE1        9.2520  -16.1630   31.5250 C.ar  238  TYR238      0.0417
    114  CE2        9.0890  -16.2750   33.9170 C.ar  238  TYR238      0.0417
    115  CZ         9.6050  -15.6940   32.7780 C.ar  238  TYR238      0.1957
    116  OH        10.4480  -14.6190   32.9050 O.3   238  TYR238     -0.2866
    117  N          7.1700  -13.6490   40.2610 N.3   292  ARG292     -0.1245
    118  CA         7.3540  -12.2130   40.4680 C.3   292  ARG292      0.1563
    119  C          6.2520  -11.3280   39.8900 C.2   292  ARG292      0.2260
    120  O          6.2080  -10.1310   40.1660 O.2   292  ARG292     -0.2867
    121  CB         8.7330  -11.7810   39.9400 C.3   292  ARG292      0.0307
    122  CG         8.8660  -11.6680   38.4290 C.3   292  ARG292      0.0489
    123  CD        10.3360  -11.5610   38.0200 C.3   292  ARG292      0.2205
    124  NE        10.4700  -10.9450   36.7060 N.pl3 292  ARG292     -0.0865
    125  CZ        10.5800  -11.6260   35.5700 C.cat 292  ARG292      0.5346
    126  NH1       10.5780  -12.9510   35.5800 N.pl3 292  ARG292      0.1354
    127  NH2       10.6470  -10.9780   34.4190 N.pl3 292  ARG292      0.1354
    128  N         13.7420  -10.7130   40.4520 N.3   409  MET409     -0.1230
    129  CA        14.5830  -10.4890   39.2940 C.3   409  MET409      0.1702
    130  C         14.0740   -9.2670   38.5640 C.2   409  MET409      0.2592
    131  O         12.8900   -8.9510   38.6340 O.2   409  MET409     -0.2718
    132  CB        14.5400  -11.7310   38.3890 C.3   409  MET409      0.0401
    133  CG        14.6100  -11.4680   36.8890 C.3   409  MET409      0.0596
    134  SD        14.5490  -12.9930   35.8790 S.3   409  MET409     -0.1393
    135  CE        15.3540  -14.1190   36.9720 C.3   409  MET409      0.0692
    136  N         14.9740   -8.5780   37.8710 N.am  410  ASN410     -0.1974
    137  CA        14.6210   -7.3710   37.1340 C.3   410  ASN410      0.1688
    138  C         13.9350   -6.3610   38.0430 C.2   410  ASN410      0.2292
    139  O         13.0390   -5.6360   37.6290 O.2   410  ASN410     -0.2864
    140  CB        13.7150   -7.7230   35.9540 C.3   410  ASN410      0.1181
    141  CG        14.4420   -8.5150   34.8860 C.2   410  ASN410      0.2629
    142  OD1       15.6660   -8.6090   34.9060 O.2   410  ASN410     -0.2716
    143  ND2       13.6940   -9.0880   33.9540 N.am  410  ASN410     -0.0877
@<TRIPOS>BOND
     1    43    44    2
     2    43    42    1
     3    41    42    1
     4    74    73    2
     5    42    45    1
     6    30    29    2
     7    16    15    2
     8    73    72    1
     9    63    62    2
    10    29    28    1
    11    25    23   ar
    12    25    26   ar
    13    23    20   ar
    14    45    46    1
    15    15    14    1
    16    15    27   am
    17    62    61    1
    18    72    75    1
    19    72    71    1
    20    60    61    1
    21    14    17    1
    22    14    13    1
    23    28    27    1
    24    28    31    1
    25    40    38   ar
    26    40    39   ar
    27    17    18    1
    28    46    47    1
    29    38    36   ar
    30    39    37   ar
    31    26    24   ar
    32     8     7    2
    33    75    76    1
    34    61    64    1
    35    20    18   ar
    36    20    22   ar
    37    37    34   ar
    38    36    34   ar
    39    36    35   ar
    40    52    53    1
    41    34    32   ar
    42    35    33   ar
    43    54    53    1
    44    54    55    2
    45    18    19   ar
    46    32    33   ar
    47    32    31    1
    48    53    56    1
    49    13     7   am
    50    70    68   ar
    51    70    69   ar
    52     7     6    1
    53    68    66   ar
    54    69    67   ar
    55    66    65   ar
    56    67    65   ar
    57    78    76   am
    58    65    64    1
    59    24    22   ar
    60    76    77    2
    61    22    21   ar
    62    47    48    1
    63     1     2    1
    64    48    49    2
    65    19    21   ar
    66    49    50    1
    67    49    51    1
    68    58    57    2
    69     6     5    1
    70     6     9    1
    71     5     3   am
    72    56    57    1
    73     3     2    1
    74     3     4    2
    75     9    10    1
    76    57    59   am
    77    11    10    2
    78    10    12   am
    79   108   107    2
    80    86    85   ar
    81    82    81    2
    82   111   113   ar
    83   111   110   ar
    84   107   106    1
    85   113   115   ar
    86    81    80    1
    87    85    84    1
    88    85    87   ar
    89   106   109    1
    90   106   105    1
    91    83    84    1
    92    83    80    1
    93   109   110    1
    94   110   112   ar
    95   115   116    1
    96   115   114   ar
    97    80    79    1
    98    97    95   ar
    99    97    96   ar
   100   112   114   ar
   101    95    93   ar
   102   143   141   am
   103   127   125    1
   104    96    94   ar
   105    88    89    1
   106   141   142    2
   107   141   140    1
   108    93    94   ar
   109    93    92    1
   110    89    92    1
   111    89    90    1
   112   125   126    1
   113   125   124    2
   114    98    90   am
   115    98    99    1
   116   134   133    1
   117   134   135    1
   118   140   137    1
   119   103   102    1
   120    90    91    2
   121    99   102    1
   122    99   100    1
   123   124   123    1
   124   133   132    1
   125   102   104    1
   126   137   136    1
   127   137   138    1
   128   101   100    2
   129   139   138    2
   130   136   130   am
   131   123   122    1
   132   132   129    1
   133   122   121    1
   134   130   131    2
   135   130   129    1
   136   129   128    1
   137   119   120    2
   138   119   118    1
   139   121   118    1
   140   117   118    1
