@<TRIPOS>MOLECULE
tmp/1c83A00.pdb
 113 107 0 0 0
SMALL
GASTEIGER

@<TRIPOS>ATOM
      1  N         38.0760    9.4220    1.7160 N.3    45  TYR45      -0.1241
      2  CA        39.1440    8.9800    0.8330 C.3    45  TYR45       0.1605
      3  C         39.2520    7.4530    0.9540 C.2    45  TYR45       0.2264
      4  O         39.3060    6.8970    2.0350 O.2    45  TYR45      -0.2867
      5  CB        40.4450    9.6260    1.3520 C.3    45  TYR45       0.0534
      6  CG        40.3970   11.1360    1.2760 C.ar   45  TYR45      -0.0201
      7  CD1       40.3630   11.7360    0.0240 C.ar   45  TYR45      -0.0009
      8  CD2       40.3720   11.9440    2.4230 C.ar   45  TYR45      -0.0009
      9  CE1       40.3010   13.1130   -0.0940 C.ar   45  TYR45       0.0417
     10  CE2       40.3230   13.3300    2.3040 C.ar   45  TYR45       0.0417
     11  CZ        40.2680   13.8930    1.0440 C.ar   45  TYR45       0.1957
     12  OH        40.1190   15.2300    0.8720 O.3    45  TYR45      -0.2866
     13  N         41.8780    5.6400    0.5620 N.3    47  ASP47      -0.1225
     14  CA        43.1300    5.1580    1.1220 C.3    47  ASP47       0.1805
     15  C         43.3570    5.6850    2.5480 C.2    47  ASP47       0.2597
     16  O         44.4350    5.5340    3.1270 O.2    47  ASP47      -0.2718
     17  CB        44.2530    5.5460    0.1330 C.3    47  ASP47       0.1424
     18  CG        44.1990    4.7150   -1.1330 C.2    47  ASP47       0.3668
     19  OD1       43.4980    3.7030   -1.1390 O.co2  47  ASP47      -0.2456
     20  OD2       44.8740    5.1080   -2.0780 O.co2  47  ASP47      -0.2456
     21  N         42.3000    6.3010    3.1120 N.am   48  VAL48      -0.1980
     22  CA        42.3670    6.6340    4.5370 C.3    48  VAL48       0.1595
     23  C         41.1960    6.1580    5.3940 C.2    48  VAL48       0.2287
     24  O         40.0790    6.6130    5.2790 O.2    48  VAL48      -0.2864
     25  CB        42.9540    8.0480    4.8110 C.3    48  VAL48       0.0276
     26  CG1       43.2880    8.9290    3.5940 C.3    48  VAL48       0.0022
     27  CG2       42.4820    8.7240    6.1380 C.3    48  VAL48       0.0022
     28  N         36.7540   20.1480    0.7320 N.3   119  LYS119     -0.1245
     29  CA        37.5140   19.2050    1.5610 C.3   119  LYS119      0.1561
     30  C         36.7780   18.7630    2.8070 C.2   119  LYS119      0.2260
     31  O         37.2100   17.9370    3.5880 O.2   119  LYS119     -0.2867
     32  CB        38.7830   19.9700    1.9260 C.3   119  LYS119      0.0271
     33  CG        39.6490   20.0640    0.6800 C.3   119  LYS119      0.0035
     34  CD        40.2790   18.6710    0.4700 C.3   119  LYS119      0.0206
     35  CE        40.9560   18.7330   -0.8160 C.3   119  LYS119      0.1093
     36  NZ        41.6430   17.5610   -1.2440 N.3   119  LYS119     -0.1314
     37  N         46.5150   22.4240    2.4900 N.3   180  ASP180     -0.1225
     38  CA        46.5250   20.9700    2.4610 C.3   180  ASP180      0.1805
     39  C         47.8760   20.4680    1.8790 C.2   180  ASP180      0.2597
     40  O         48.4210   21.0860    0.9380 O.2   180  ASP180     -0.2718
     41  CB        45.3020   20.5400    1.6360 C.3   180  ASP180      0.1424
     42  CG        44.9840   19.0570    1.7500 C.2   180  ASP180      0.3668
     43  OD1       45.6940   18.3530    2.4630 O.co2 180  ASP180     -0.2456
     44  OD2       44.1150   18.6360    0.9730 O.co2 180  ASP180     -0.2456
     45  N         48.4350   19.4040    2.5020 N.am  181  PHE181     -0.1976
     46  CA        49.7810   18.8590    2.2820 C.3   181  PHE181      0.1639
     47  C         50.8520   19.9580    2.3970 C.2   181  PHE181      0.2290
     48  O         51.9140   19.8770    1.7700 O.2   181  PHE181     -0.2864
     49  CB        49.8600   18.2090    0.8980 C.3   181  PHE181      0.0560
     50  CG        48.9000   17.0440    0.7980 C.ar  181  PHE181     -0.0200
     51  CD1       49.2120   15.8080    1.3720 C.ar  181  PHE181     -0.0042
     52  CD2       47.6940   17.1790    0.1230 C.ar  181  PHE181     -0.0042
     53  CE1       48.3730   14.7160    1.2280 C.ar  181  PHE181     -0.0003
     54  CE2       46.8580   16.0750   -0.0450 C.ar  181  PHE181     -0.0003
     55  CZ        47.2070   14.8550    0.5000 C.ar  181  PHE181     -0.0000
     56  N         41.5690   17.4490    9.8340 N.3   214  CYS214     -0.1221
     57  CA        41.8430   18.2090    8.6090 C.3   214  CYS214      0.1808
     58  C         40.8650   17.6720    7.5740 C.2   214  CYS214      0.2602
     59  O         39.7320   17.3280    7.9110 O.2   214  CYS214     -0.2717
     60  CB        43.3280   18.1110    8.1880 C.3   214  CYS214      0.0970
     61  SG        44.0610   16.4640    8.4850 S.3   214  CYS214     -0.0800
     62  N         41.2850   17.6000    6.3180 N.am  215  SER215     -0.1938
     63  CA        40.3910   16.9520    5.3460 C.3   215  SER215      0.2055
     64  C         40.3840   15.3930    5.5400 C.2   215  SER215      0.2642
     65  O         39.3380   14.7540    5.6950 O.2   215  SER215     -0.2714
     66  CB        40.8260   17.3520    3.9140 C.3   215  SER215      0.2130
     67  OG        39.8020   16.8070    3.0730 O.3   215  SER215     -0.2179
     68  N         41.5580   14.7510    5.5940 N.am  216  ALA216     -0.1977
     69  CA        41.6290   13.2930    5.8020 C.3   216  ALA216      0.1597
     70  C         41.7890   12.8700    7.2470 C.2   216  ALA216      0.2287
     71  O         41.5790   11.6920    7.5350 O.2   216  ALA216     -0.2864
     72  CB        42.8260   12.7480    5.0440 C.3   216  ALA216      0.0319
     73  N         44.7160   13.1500    8.9100 N.3   218  ILE218     -0.1231
     74  CA        46.0390   12.5070    9.0210 C.3   218  ILE218      0.1692
     75  C         47.2250   13.4680    8.8250 C.2   218  ILE218      0.2593
     76  O         48.1280   13.4920    9.6510 O.2   218  ILE218     -0.2718
     77  CB        46.1660   11.2410    8.1500 C.3   218  ILE218      0.0266
     78  CG1       46.0320   11.5550    6.6430 C.3   218  ILE218      0.0019
     79  CG2       45.1290   10.1500    8.5710 C.3   218  ILE218      0.0020
     80  CD1       46.1920   10.2980    5.7760 C.3   218  ILE218      0.0001
     81  N         47.2420   14.2080    7.7380 N.am  219  GLY219     -0.1942
     82  CA        48.4580   14.9980    7.4950 C.3   219  GLY219      0.2014
     83  C         48.6610   16.1920    8.4330 C.2   219  GLY219      0.2638
     84  O         49.5780   16.2220    9.2390 O.2   219  GLY219     -0.2714
     85  N         47.7650   17.1860    8.3170 N.am  220  ARG220     -0.1977
     86  CA        47.8290   18.3320    9.2290 C.3   220  ARG220      0.1597
     87  C         47.4720   17.9320   10.6810 C.2   220  ARG220      0.2287
     88  O         48.0730   18.4050   11.6420 O.2   220  ARG220     -0.2864
     89  CB        46.9250   19.4410    8.6700 C.3   220  ARG220      0.0334
     90  CG        47.4130   19.9060    7.2820 C.3   220  ARG220      0.0492
     91  CD        46.4310   20.8910    6.6490 C.3   220  ARG220      0.2205
     92  NE        45.3560   20.1590    5.9880 N.pl3 220  ARG220     -0.0865
     93  CZ        44.4480   20.8000    5.2170 C.cat 220  ARG220      0.5346
     94  NH1       44.4250   22.1160    5.1700 N.pl3 220  ARG220      0.1354
     95  NH2       43.5020   20.1710    4.5740 N.pl3 220  ARG220      0.1354
     96  N         51.7630   13.7420    6.4080 N.3   261  GLN261     -0.1245
     97  CA        51.6860   13.2050    5.0480 C.3   261  GLN261      0.1566
     98  C         52.8790   13.5670    4.1430 C.2   261  GLN261      0.2260
     99  O         52.9740   13.0800    3.0130 O.2   261  GLN261     -0.2867
    100  CB        50.3840   13.7660    4.4500 C.3   261  GLN261      0.0367
    101  CG        49.1510   12.9600    4.9120 C.3   261  GLN261      0.0905
    102  CD        49.1030   11.6470    4.1050 C.2   261  GLN261      0.2608
    103  OE1       48.8560   11.6690    2.9060 O.2   261  GLN261     -0.2717
    104  NE2       49.3040   10.5120    4.7570 N.am  261  GLN261     -0.0878
    105  N         56.1970   18.4320    6.4130 N.3   265  GLN265     -0.1245
    106  CA        55.4270   18.5150    7.6600 C.3   265  GLN265      0.1566
    107  C         56.2010   17.8960    8.8480 C.2   265  GLN265      0.2260
    108  O         56.1060   18.3380    9.9860 O.2   265  GLN265     -0.2867
    109  CB        54.0650   17.8160    7.4520 C.3   265  GLN265      0.0367
    110  CG        53.1300   18.5760    6.4860 C.3   265  GLN265      0.0905
    111  CD        51.8660   17.7470    6.2250 C.2   265  GLN265      0.2608
    112  OE1       51.8330   16.5500    6.4380 O.2   265  GLN265     -0.2717
    113  NE2       50.8480   18.4320    5.6950 N.am  265  GLN265     -0.0878
@<TRIPOS>BOND
     1    20    18   ar
     2    36    35    1
     3    19    18   ar
     4    18    17    1
     5    35    34    1
     6     9     7   ar
     7     9    11   ar
     8    54    52   ar
     9    54    55   ar
    10     7     6   ar
    11    52    50   ar
    12    17    14    1
    13    34    33    1
    14    55    53   ar
    15    13    14    1
    16    33    32    1
    17    28    29    1
    18    50    49    1
    19    50    51   ar
    20     2     3    1
    21     2     5    1
    22     2     1    1
    23    12    11    1
    24    49    46    1
    25    40    39    2
    26     3     4    2
    27    44    42   ar
    28    11    10   ar
    29    14    15    1
    30    53    51   ar
    31     6     5    1
    32     6     8   ar
    33    29    32    1
    34    29    30    1
    35    41    42    1
    36    41    38    1
    37    42    43   ar
    38    48    47    2
    39    39    38    1
    40    39    45   am
    41    46    47    1
    42    46    45    1
    43    10     8   ar
    44    38    37    1
    45    15    21   am
    46    15    16    2
    47    30    31    2
    48   103   102    2
    49    99    98    2
    50    67    66    1
    51    21    22    1
    52    26    25    1
    53    66    63    1
    54   102   104   am
    55   102   101    1
    56    98    97    1
    57   100   101    1
    58   100    97    1
    59    22    25    1
    60    22    23    1
    61    95    93    1
    62    25    27    1
    63    72    69    1
    64    97    96    1
    65    94    93    1
    66    93    92    2
    67    24    23    2
    68    63    64    1
    69    63    62    1
    70    64    68   am
    71    64    65    2
    72    68    69    1
    73   113   111   am
    74    80    78    1
    75    69    70    1
    76    92    91    1
    77   111   112    2
    78   111   110    1
    79    62    58   am
    80   105   106    1
    81   110   109    1
    82    78    77    1
    83    91    90    1
    84    70    71    2
    85    90    89    1
    86   109   106    1
    87    82    81    1
    88    82    83    1
    89    58    59    2
    90    58    57    1
    91   106   107    1
    92    81    75   am
    93    77    79    1
    94    77    74    1
    95    60    61    1
    96    60    57    1
    97    85    83   am
    98    85    86    1
    99    83    84    2
   100    57    56    1
   101    89    86    1
   102    75    74    1
   103    75    76    2
   104   107   108    2
   105    73    74    1
   106    86    87    1
   107    87    88    2
