@<TRIPOS>MOLECULE
tmp/1c84A00.pdb
 113 107 0 0 0
SMALL
GASTEIGER

@<TRIPOS>ATOM
      1  N         38.2520    9.1370    1.5700 N.3    45  TYR45      -0.1241
      2  CA        39.3120    8.7450    0.6470 C.3    45  TYR45       0.1605
      3  C         39.5520    7.2260    0.6510 C.2    45  TYR45       0.2264
      4  O         39.8160    6.5990    1.6640 O.2    45  TYR45      -0.2867
      5  CB        40.6070    9.4730    1.0480 C.3    45  TYR45       0.0534
      6  CG        40.4280   10.9580    1.0080 C.ar   45  TYR45      -0.0201
      7  CD1       40.2290   11.6150   -0.2110 C.ar   45  TYR45      -0.0009
      8  CD2       40.5180   11.7060    2.1820 C.ar   45  TYR45      -0.0009
      9  CE1       40.1260   13.0040   -0.2480 C.ar   45  TYR45       0.0417
     10  CE2       40.4140   13.0890    2.1450 C.ar   45  TYR45       0.0417
     11  CZ        40.2200   13.7380    0.9390 C.ar   45  TYR45       0.1957
     12  OH        40.1190   15.1220    0.8980 O.3    45  TYR45      -0.2866
     13  N         42.0010    5.6620    0.1800 N.3    47  ASP47      -0.1225
     14  CA        43.2860    5.2060    0.7280 C.3    47  ASP47       0.1805
     15  C         43.5670    5.7190    2.1540 C.2    47  ASP47       0.2597
     16  O         44.6680    5.5980    2.6830 O.2    47  ASP47      -0.2718
     17  CB        44.3930    5.6750   -0.2220 C.3    47  ASP47       0.1424
     18  CG        44.3670    4.8080   -1.4770 C.2    47  ASP47       0.3668
     19  OD1       43.5670    3.8760   -1.5050 O.co2  47  ASP47      -0.2456
     20  OD2       45.1360    5.0700   -2.3940 O.co2  47  ASP47      -0.2456
     21  N         42.5430    6.3400    2.7680 N.am   48  VAL48      -0.1980
     22  CA        42.6860    6.7090    4.1810 C.3    48  VAL48       0.1595
     23  C         41.5400    6.1570    5.0260 C.2    48  VAL48       0.2287
     24  O         40.4130    6.6340    4.9790 O.2    48  VAL48      -0.2864
     25  CB        42.7210    8.2450    4.2960 C.3    48  VAL48       0.0276
     26  CG1       42.9750    8.6440    5.7480 C.3    48  VAL48       0.0022
     27  CG2       43.8220    8.8120    3.4230 C.3    48  VAL48       0.0022
     28  N         36.5140   19.9670    0.6460 N.3   119  LYS119     -0.1245
     29  CA        37.2920   19.1410    1.5500 C.3   119  LYS119      0.1561
     30  C         36.5210   18.5130    2.6720 C.2   119  LYS119      0.2260
     31  O         37.0100   17.6190    3.3260 O.2   119  LYS119     -0.2867
     32  CB        38.3260   20.0170    2.2260 C.3   119  LYS119      0.0271
     33  CG        39.3440   20.4600    1.1910 C.3   119  LYS119      0.0035
     34  CD        40.2980   19.3860    0.6090 C.3   119  LYS119      0.0206
     35  CE        39.9250   18.8530   -0.7480 C.3   119  LYS119      0.1093
     36  NZ        40.8230   17.7610   -1.0530 N.3   119  LYS119     -0.1314
     37  N         46.3660   22.6140    2.5310 N.3   180  ASP180     -0.1225
     38  CA        46.3430   21.1740    2.3040 C.3   180  ASP180      0.1805
     39  C         47.7440   20.6770    1.8460 C.2   180  ASP180      0.2597
     40  O         48.3310   21.3240    0.9760 O.2   180  ASP180     -0.2718
     41  CB        45.1950   20.8160    1.3320 C.3   180  ASP180      0.1424
     42  CG        44.6920   19.3490    1.4800 C.2   180  ASP180      0.3668
     43  OD1       45.2640   18.5820    2.2760 O.co2 180  ASP180     -0.2456
     44  OD2       43.7380   18.9930    0.7800 O.co2 180  ASP180     -0.2456
     45  N         48.2250   19.5610    2.5020 N.am  181  PHE181     -0.1976
     46  CA        49.5590   19.0430    2.1680 C.3   181  PHE181      0.1639
     47  C         50.6940   20.0650    2.3580 C.2   181  PHE181      0.2290
     48  O         51.7650   19.8630    1.8000 O.2   181  PHE181     -0.2864
     49  CB        49.5990   18.4690    0.7430 C.3   181  PHE181      0.0560
     50  CG        48.7030   17.2710    0.5930 C.ar  181  PHE181     -0.0200
     51  CD1       49.1600   16.0180    1.0600 C.ar  181  PHE181     -0.0042
     52  CD2       47.4400   17.3830   -0.0150 C.ar  181  PHE181     -0.0042
     53  CE1       48.3690   14.8920    0.9220 C.ar  181  PHE181     -0.0003
     54  CE2       46.6540   16.2460   -0.1800 C.ar  181  PHE181     -0.0003
     55  CZ        47.1330   15.0190    0.2730 C.ar  181  PHE181     -0.0000
     56  N         41.6010   17.0750    9.6900 N.3   214  CYS214     -0.1221
     57  CA        41.8270   17.7840    8.4560 C.3   214  CYS214      0.1808
     58  C         40.6480   17.4040    7.5080 C.2   214  CYS214      0.2602
     59  O         39.5960   16.9290    7.8780 O.2   214  CYS214     -0.2717
     60  CB        42.9890   17.2350    7.6910 C.3   214  CYS214      0.0970
     61  SG        44.3970   16.5380    8.3640 S.3   214  CYS214     -0.0800
     62  N         40.9680   17.4870    6.2390 N.am  215  SER215     -0.1938
     63  CA        40.1720   16.7080    5.3240 C.3   215  SER215      0.2055
     64  C         40.3330   15.1310    5.4490 C.2   215  SER215      0.2642
     65  O         39.3450   14.4510    5.6670 O.2   215  SER215     -0.2714
     66  CB        40.6060   17.2260    3.9070 C.3   215  SER215      0.2130
     67  OG        39.8010   16.8440    2.7730 O.3   215  SER215     -0.2179
     68  N         41.5800   14.5370    5.3550 N.am  216  ALA216     -0.1977
     69  CA        41.7520   13.0610    5.5120 C.3   216  ALA216      0.1597
     70  C         41.9380   12.6120    7.0000 C.2   216  ALA216      0.2287
     71  O         41.7410   11.4720    7.4090 O.2   216  ALA216     -0.2864
     72  CB        42.9210   12.6750    4.6530 C.3   216  ALA216      0.0319
     73  N         44.9820   13.0780    8.6160 N.3   218  ILE218     -0.1231
     74  CA        46.3160   12.4790    8.6660 C.3   218  ILE218      0.1692
     75  C         47.4580   13.4800    8.5050 C.2   218  ILE218      0.2593
     76  O         48.3610   13.5800    9.3260 O.2   218  ILE218     -0.2718
     77  CB        46.4370   11.2120    7.7730 C.3   218  ILE218      0.0266
     78  CG1       46.2580   11.4810    6.2800 C.3   218  ILE218      0.0019
     79  CG2       45.4600   10.1610    8.3010 C.3   218  ILE218      0.0020
     80  CD1       46.2400   10.1950    5.3980 C.3   218  ILE218      0.0001
     81  N         47.4290   14.2410    7.4450 N.am  219  GLY219     -0.1942
     82  CA        48.6630   15.1050    7.2820 C.3   219  GLY219      0.2014
     83  C         48.8870   16.2180    8.3840 C.2   219  GLY219      0.2638
     84  O         49.6990   16.1190    9.3260 O.2   219  GLY219     -0.2714
     85  N         48.0380   17.2940    8.1790 N.am  220  ARG220     -0.1977
     86  CA        47.8940   18.4460    9.1030 C.3   220  ARG220      0.1597
     87  C         47.6560   18.0170   10.5610 C.2   220  ARG220      0.2287
     88  O         48.2970   18.5070   11.4720 O.2   220  ARG220     -0.2864
     89  CB        46.8360   19.3440    8.5390 C.3   220  ARG220      0.0334
     90  CG        47.4090   20.1240    7.3540 C.3   220  ARG220      0.0492
     91  CD        46.3890   21.0730    6.7890 C.3   220  ARG220      0.2205
     92  NE        45.4170   20.2870    6.0350 N.pl3 220  ARG220     -0.0865
     93  CZ        44.5250   20.8870    5.2730 C.cat 220  ARG220      0.5346
     94  NH1       44.3730   22.1730    5.3330 N.pl3 220  ARG220      0.1354
     95  NH2       43.8050   20.1660    4.4400 N.pl3 220  ARG220      0.1354
     96  N         52.0950   13.8630    6.1830 N.3   261  GLN261     -0.1245
     97  CA        51.8930   13.4400    4.7860 C.3   261  GLN261      0.1566
     98  C         53.0770   13.7870    3.8580 C.2   261  GLN261      0.2260
     99  O         53.2460   13.2040    2.8030 O.2   261  GLN261     -0.2867
    100  CB        50.5840   13.9920    4.3170 C.3   261  GLN261      0.0367
    101  CG        49.4820   13.0360    4.7550 C.3   261  GLN261      0.0905
    102  CD        49.5660   11.8440    3.8260 C.2   261  GLN261      0.2608
    103  OE1       49.3790   11.9710    2.6270 O.2   261  GLN261     -0.2717
    104  NE2       49.9000   10.7000    4.3890 N.am  261  GLN261     -0.0878
    105  N         56.1630   18.7750    6.2670 N.3   265  GLN265     -0.1245
    106  CA        55.4970   18.6230    7.5490 C.3   265  GLN265      0.1566
    107  C         56.4160   18.0510    8.6420 C.2   265  GLN265      0.2260
    108  O         56.4400   18.5600    9.7590 O.2   265  GLN265     -0.2867
    109  CB        54.2200   17.8300    7.3520 C.3   265  GLN265      0.0367
    110  CG        53.1050   18.7370    6.8370 C.3   265  GLN265      0.0905
    111  CD        52.0110   17.9500    6.1560 C.2   265  GLN265      0.2608
    112  OE1       51.9720   16.7370    6.1580 O.2   265  GLN265     -0.2717
    113  NE2       51.0620   18.6630    5.6120 N.am  265  GLN265     -0.0878
@<TRIPOS>BOND
     1    20    18   ar
     2    19    18   ar
     3    18    17    1
     4    36    35    1
     5    35    34    1
     6     9     7   ar
     7     9    11   ar
     8    17    14    1
     9     7     6   ar
    10    54    52   ar
    11    54    55   ar
    12    52    50   ar
    13    13    14    1
    14    55    53   ar
    15    50    49    1
    16    50    51   ar
    17    34    33    1
    18    28    29    1
    19     2     3    1
    20     2     5    1
    21     2     1    1
    22     3     4    2
    23    14    15    1
    24    49    46    1
    25    44    42   ar
    26    12    11    1
    27    53    51   ar
    28    11    10   ar
    29    40    39    2
    30     6     5    1
    31     6     8   ar
    32    33    32    1
    33    41    42    1
    34    41    38    1
    35    42    43   ar
    36    29    32    1
    37    29    30    1
    38    48    47    2
    39    39    38    1
    40    39    45   am
    41    10     8   ar
    42    15    16    2
    43    15    21   am
    44    46    47    1
    45    46    45    1
    46    38    37    1
    47   103   102    2
    48    30    31    2
    49    21    22    1
    50    67    66    1
    51    99    98    2
    52    27    25    1
    53   102   104   am
    54   102   101    1
    55    98    97    1
    56    66    63    1
    57    22    25    1
    58    22    23    1
    59    25    26    1
    60   100   101    1
    61   100    97    1
    62    95    93    1
    63    72    69    1
    64    97    96    1
    65    24    23    2
    66    93    94    1
    67    93    92    2
    68    63    64    1
    69    63    62    1
    70    68    64   am
    71    68    69    1
    72    80    78    1
    73    64    65    2
    74    69    70    1
    75   113   111   am
    76    92    91    1
    77   111   112    2
    78   111   110    1
    79    62    58   am
    80   105   106    1
    81    78    77    1
    82    91    90    1
    83   110   109    1
    84    70    71    2
    85    82    81    1
    86    82    83    1
    87   109   106    1
    88    90    89    1
    89    81    75   am
    90    58    59    2
    91    58    57    1
    92   106   107    1
    93    60    61    1
    94    60    57    1
    95    77    79    1
    96    77    74    1
    97    85    83   am
    98    85    86    1
    99    83    84    2
   100    57    56    1
   101    75    74    1
   102    75    76    2
   103    89    86    1
   104    73    74    1
   105   107   108    2
   106    86    87    1
   107    87    88    2
