@<TRIPOS>MOLECULE
tmp/1c85A00.pdb
 104 99 0 0 0
SMALL
GASTEIGER

@<TRIPOS>ATOM
      1  N         11.3810   37.6430   18.6210 N.3    45  TYR45      -0.1241
      2  CA        12.3000   38.4350   17.7280 C.3    45  TYR45       0.1605
      3  C         13.6990   37.7880   17.6740 C.2    45  TYR45       0.2264
      4  O         14.2290   37.2700   18.6420 O.2    45  TYR45      -0.2867
      5  CB        12.4370   39.8720   18.2420 C.3    45  TYR45       0.0534
      6  CG        11.0980   40.5120   18.2760 C.ar   45  TYR45      -0.0201
      7  CD1       10.4150   40.6840   17.0930 C.ar   45  TYR45      -0.0009
      8  CD2       10.4750   40.8790   19.4780 C.ar   45  TYR45      -0.0009
      9  CE1        9.1140   41.2140   17.1010 C.ar   45  TYR45       0.0417
     10  CE2        9.1680   41.4110   19.4970 C.ar   45  TYR45       0.0417
     11  CZ         8.4820   41.6140   18.2680 C.ar   45  TYR45       0.1957
     12  OH         7.2340   42.1750   18.0100 O.3    45  TYR45      -0.2866
     13  N         16.4770   39.0450   17.4160 N.3    47  ASP47      -0.1225
     14  CA        17.2860   40.1570   17.8100 C.3    47  ASP47       0.1805
     15  C         17.0130   40.6070   19.2850 C.2    47  ASP47       0.2597
     16  O         17.8150   41.3380   19.8550 O.2    47  ASP47      -0.2718
     17  CB        16.9310   41.3410   16.8400 C.3    47  ASP47       0.1424
     18  CG        15.5130   41.4290   16.0640 C.2    47  ASP47       0.3668
     19  OD1       14.8570   40.4310   15.7070 O.co2  47  ASP47      -0.2456
     20  OD2       15.1060   42.5520   15.7620 O.co2  47  ASP47      -0.2456
     21  N         15.9010   40.1960   19.8900 N.am   48  VAL48      -0.1980
     22  CA        15.7480   40.5410   21.3300 C.3    48  VAL48       0.1595
     23  C         15.8070   39.2730   22.2370 C.2    48  VAL48       0.2287
     24  O         14.8270   38.5210   22.3330 O.2    48  VAL48      -0.2864
     25  CB        14.4160   41.2250   21.5850 C.3    48  VAL48       0.0276
     26  CG1       14.2230   41.5210   23.0750 C.3    48  VAL48       0.0022
     27  CG2       14.1730   42.3980   20.6070 C.3    48  VAL48       0.0022
     28  N          1.0380   41.4470   17.9160 N.3   119  LYS119     -0.1245
     29  CA         2.1750   41.7380   18.7600 C.3   119  LYS119      0.1561
     30  C          2.3450   40.8350   20.0020 C.2   119  LYS119      0.2260
     31  O          3.3550   40.8540   20.6860 O.2   119  LYS119     -0.2867
     32  CB         1.9880   43.1940   19.1890 C.3   119  LYS119      0.0271
     33  CG         2.1370   44.0910   17.9550 C.3   119  LYS119      0.0035
     34  CD         3.5480   44.0660   17.3620 C.3   119  LYS119      0.0206
     35  CE         3.6310   44.4710   15.9150 C.3   119  LYS119      0.1093
     36  NZ         4.9990   44.9360   15.7600 N.3   119  LYS119     -0.1314
     37  N          3.5330   51.3810   19.6880 N.3   180  ASP180     -0.1225
     38  CA         4.8020   50.6290   19.5430 C.3   180  ASP180      0.1805
     39  C          5.9580   51.6000   19.0910 C.2   180  ASP180      0.2597
     40  O          5.6870   52.4210   18.2160 O.2   180  ASP180     -0.2718
     41  CB         4.5010   49.4220   18.5790 C.3   180  ASP180      0.1424
     42  CG         5.4600   48.1910   18.6740 C.2   180  ASP180      0.3668
     43  OD1        6.1740   48.0550   19.6520 O.co2 180  ASP180     -0.2456
     44  OD2        5.4790   47.3370   17.7820 O.co2 180  ASP180     -0.2456
     45  N          7.1560   51.5810   19.7070 N.am  181  PHE181     -0.1976
     46  CA         8.2030   52.4760   19.2300 C.3   181  PHE181      0.1639
     47  C          7.9040   53.9680   19.3720 C.2   181  PHE181      0.2290
     48  O          8.5200   54.8330   18.7550 O.2   181  PHE181     -0.2864
     49  CB         8.5820   52.1340   17.8130 C.3   181  PHE181      0.0560
     50  CG         9.2270   50.7800   17.7530 C.ar  181  PHE181     -0.0200
     51  CD1       10.4640   50.5840   18.3810 C.ar  181  PHE181     -0.0042
     52  CD2        8.6140   49.7250   17.0660 C.ar  181  PHE181     -0.0042
     53  CE1       11.0790   49.3560   18.3080 C.ar  181  PHE181     -0.0003
     54  CE2        9.2800   48.5100   16.9380 C.ar  181  PHE181     -0.0003
     55  CZ        10.5200   48.3590   17.5400 C.ar  181  PHE181     -0.0000
     56  N          6.0380   44.7270   26.9050 N.3   214  CYS214     -0.1221
     57  CA         5.2930   45.0870   25.7200 C.3   214  CYS214      0.1808
     58  C          5.3800   43.9430   24.7210 C.2   214  CYS214      0.2602
     59  O          5.2820   42.7760   25.0700 O.2   214  CYS214     -0.2717
     60  CB         5.9020   46.3490   25.1190 C.3   214  CYS214      0.0970
     61  SG         7.6790   46.4600   25.4030 S.3   214  CYS214     -0.0800
     62  N          5.5740   44.2920   23.4490 N.am  215  SER215     -0.1938
     63  CA         5.7530   43.2360   22.4690 C.3   215  SER215      0.2055
     64  C          7.0910   42.4960   22.6620 C.2   215  SER215      0.2642
     65  O          7.1720   41.2710   22.6580 O.2   215  SER215     -0.2714
     66  CB         5.6980   43.8570   21.0790 C.3   215  SER215      0.2130
     67  OG         5.5120   42.8190   20.1180 O.3   215  SER215     -0.2179
     68  N          8.1730   43.2770   22.8090 N.am  216  ALA216     -0.1977
     69  CA         9.4780   42.6550   22.9100 C.3   216  ALA216      0.1597
     70  C          9.9780   42.6060   24.3560 C.2   216  ALA216      0.2287
     71  O         10.8340   41.8070   24.7120 O.2   216  ALA216     -0.2864
     72  CB        10.4490   43.4450   22.0360 C.3   216  ALA216      0.0319
     73  N         11.1930   45.5480   25.6750 N.3   218  ILE218     -0.1231
     74  CA        12.3990   46.4460   25.6850 C.3   218  ILE218      0.1692
     75  C         12.1530   47.9580   25.5190 C.2   218  ILE218      0.2593
     76  O         12.5450   48.7790   26.3530 O.2   218  ILE218     -0.2718
     77  CB        13.5550   45.9680   24.7910 C.3   218  ILE218      0.0266
     78  CG1       13.1540   45.7920   23.3560 C.3   218  ILE218      0.0019
     79  CG2       14.1660   44.6850   25.2940 C.3   218  ILE218      0.0020
     80  CD1       14.4100   45.3200   22.5530 C.3   218  ILE218      0.0001
     81  N         11.4830   48.3030   24.4460 N.am  219  GLY219     -0.1942
     82  CA        11.2800   49.7660   24.3050 C.3   219  GLY219      0.2014
     83  C         10.3820   50.4060   25.3650 C.2   219  GLY219      0.2638
     84  O         10.8990   50.9260   26.3690 O.2   219  GLY219     -0.2714
     85  N          9.0470   50.2310   25.1320 N.am  220  ARG220     -0.1977
     86  CA         7.9850   50.5230   26.1390 C.3   220  ARG220      0.1597
     87  C          8.2820   50.1490   27.6320 C.2   220  ARG220      0.2287
     88  O          8.2590   50.9960   28.5160 O.2   220  ARG220     -0.2864
     89  CB         6.6890   50.0650   25.6080 C.3   220  ARG220      0.0334
     90  CG         6.3220   50.8660   24.3770 C.3   220  ARG220      0.0492
     91  CD         4.9060   50.5020   23.8640 C.3   220  ARG220      0.2205
     92  NE         5.0550   49.3300   23.0630 N.pl3 220  ARG220     -0.0865
     93  CZ         4.1070   48.7550   22.3370 C.cat 220  ARG220      0.5346
     94  NH1        2.9580   49.3120   22.2850 N.pl3 220  ARG220      0.1354
     95  NH2        4.2820   47.7220   21.5760 N.pl3 220  ARG220      0.1354
     96  N         13.8680   51.8660   23.1260 N.3   261  GLN261     -0.1245
     97  CA        14.1050   51.6330   21.6900 C.3   261  GLN261      0.1566
     98  C         14.4940   52.8840   20.8770 C.2   261  GLN261      0.2260
     99  O         15.1910   52.7400   19.8870 O.2   261  GLN261     -0.2867
    100  CB        12.9460   50.8330   21.0860 C.3   261  GLN261      0.0367
    101  CG        13.0150   49.3530   21.4930 C.3   261  GLN261      0.0905
    102  CD        14.2570   48.7850   20.8330 C.2   261  GLN261      0.2608
    103  OE1       14.2480   48.4060   19.6650 O.2   261  GLN261     -0.2717
    104  NE2       15.3610   48.8020   21.5760 N.am  261  GLN261     -0.0878
@<TRIPOS>BOND
     1    19    18   ar
     2    36    35    1
     3    20    18   ar
     4    35    34    1
     5    18    17    1
     6    17    14    1
     7    54    52   ar
     8    54    55   ar
     9    52    50   ar
    10     7     9   ar
    11     7     6   ar
    12     9    11   ar
    13    34    33    1
    14    13    14    1
    15    55    53   ar
    16     3     2    1
    17     3     4    2
    18     2     5    1
    19     2     1    1
    20    50    49    1
    21    50    51   ar
    22    44    42   ar
    23    14    15    1
    24    49    46    1
    25    28    29    1
    26    33    32    1
    27    12    11    1
    28    40    39    2
    29     5     6    1
    30    11    10   ar
    31     6     8   ar
    32    53    51   ar
    33    41    42    1
    34    41    38    1
    35    42    43   ar
    36    48    47    2
    37    29    32    1
    38    29    30    1
    39    39    38    1
    40    39    45   am
    41    46    47    1
    42    46    45    1
    43    15    16    2
    44    15    21   am
    45     8    10   ar
    46    38    37    1
    47   103   102    2
    48    99    98    2
    49    21    22    1
    50    30    31    2
    51    67    66    1
    52    27    25    1
    53   102   101    1
    54   102   104   am
    55    98    97    1
    56    66    63    1
    57   100   101    1
    58   100    97    1
    59    22    25    1
    60    22    23    1
    61    95    93    1
    62    25    26    1
    63    97    96    1
    64    72    69    1
    65    23    24    2
    66    94    93    1
    67    93    92    2
    68    63    64    1
    69    63    62    1
    70    80    78    1
    71    65    64    2
    72    64    68   am
    73    68    69    1
    74    69    70    1
    75    92    91    1
    76    78    77    1
    77    62    58   am
    78    91    90    1
    79    82    81    1
    80    82    83    1
    81    70    71    2
    82    90    89    1
    83    81    75   am
    84    58    59    2
    85    58    57    1
    86    77    79    1
    87    77    74    1
    88    60    61    1
    89    60    57    1
    90    85    83   am
    91    85    86    1
    92    83    84    2
    93    75    74    1
    94    75    76    2
    95    89    86    1
    96    73    74    1
    97    57    56    1
    98    86    87    1
    99    87    88    2
