@<TRIPOS>MOLECULE
tmp/1c86A00.pdb
 113 107 0 0 0
SMALL
GASTEIGER

@<TRIPOS>ATOM
      1  N         11.2610   38.0010   19.0880 N.3    44  TYR44      -0.1241
      2  CA        12.3160   38.6200   18.2670 C.3    44  TYR44       0.1605
      3  C         13.7050   37.9340   18.4280 C.2    44  TYR44       0.2264
      4  O         14.2830   37.8030   19.5100 O.2    44  TYR44      -0.2867
      5  CB        12.4770   40.0930   18.6520 C.3    44  TYR44       0.0534
      6  CG        11.1560   40.8200   18.6090 C.ar   44  TYR44      -0.0201
      7  CD1       10.4140   40.9710   17.4440 C.ar   44  TYR44      -0.0009
      8  CD2       10.5980   41.2870   19.7780 C.ar   44  TYR44      -0.0009
      9  CE1        9.1500   41.5850   17.4630 C.ar   44  TYR44       0.0417
     10  CE2        9.3400   41.8660   19.8100 C.ar   44  TYR44       0.0417
     11  CZ         8.5970   42.0700   18.6370 C.ar   44  TYR44       0.1957
     12  OH         7.3420   42.6670   18.5450 O.3    44  TYR44      -0.2866
     13  N         16.4050   39.2440   17.8120 N.3    46  ASN46      -0.1225
     14  CA        17.3760   40.1640   18.3310 C.3    46  ASN46       0.1785
     15  C         17.0640   40.6930   19.7320 C.2    46  ASN46       0.2597
     16  O         17.6670   41.6740   20.1320 O.2    46  ASN46      -0.2718
     17  CB        17.3980   41.3170   17.3290 C.3    46  ASN46       0.1169
     18  CG        16.1270   42.1680   17.3210 C.2    46  ASN46       0.2627
     19  OD1       15.0470   41.6210   17.3740 O.2    46  ASN46      -0.2716
     20  ND2       16.3470   43.4700   17.2980 N.am   46  ASN46      -0.0877
     21  N         16.1230   40.0530   20.4480 N.am   47  VAL47      -0.1980
     22  CA        15.9010   40.4370   21.8510 C.3    47  VAL47       0.1595
     23  C         15.7360   39.1500   22.7160 C.2    47  VAL47       0.2287
     24  O         14.7830   38.3640   22.6560 O.2    47  VAL47      -0.2864
     25  CB        14.9630   41.6760   22.1320 C.3    47  VAL47       0.0276
     26  CG1       14.1980   42.3140   20.9380 C.3    47  VAL47       0.0022
     27  CG2       14.0970   41.5230   23.4080 C.3    47  VAL47       0.0022
     28  N          1.3210   41.7690   18.2160 N.3   118  LYS118     -0.1245
     29  CA         2.3890   42.0320   19.1630 C.3   118  LYS118      0.1561
     30  C          2.3630   41.1830   20.4020 C.2   118  LYS118      0.2260
     31  O          3.3150   41.2260   21.1350 O.2   118  LYS118     -0.2867
     32  CB         2.4160   43.5150   19.5080 C.3   118  LYS118      0.0271
     33  CG         2.6000   44.3300   18.2170 C.3   118  LYS118      0.0035
     34  CD         4.0610   44.4000   17.8520 C.3   118  LYS118      0.0206
     35  CE         4.5060   45.2520   16.6930 C.3   118  LYS118      0.1093
     36  NZ         5.9540   45.1330   16.7800 N.3   118  LYS118     -0.1314
     37  N          3.8330   51.6780   20.1990 N.3   179  ASP179     -0.1225
     38  CA         5.1280   50.9980   20.0760 C.3   179  ASP179      0.1805
     39  C          6.2090   51.9420   19.5030 C.2   179  ASP179      0.2597
     40  O          5.9090   52.7790   18.6560 O.2   179  ASP179     -0.2718
     41  CB         4.9430   49.7810   19.1790 C.3   179  ASP179      0.1424
     42  CG         6.0080   48.7110   19.3750 C.2   179  ASP179      0.3668
     43  OD1        7.0210   48.9760   20.0260 O.co2 179  ASP179     -0.2456
     44  OD2        5.6610   47.6750   18.8210 O.co2 179  ASP179     -0.2456
     45  N          7.4250   51.8610   20.0440 N.am  180  PHE180     -0.1976
     46  CA         8.4660   52.8310   19.7050 C.3   180  PHE180      0.1639
     47  C          8.0530   54.2910   19.9270 C.2   180  PHE180      0.2290
     48  O          8.6290   55.1790   19.3140 O.2   180  PHE180     -0.2864
     49  CB         8.9130   52.6530   18.2440 C.3   180  PHE180      0.0560
     50  CG         9.5460   51.3060   18.0590 C.ar  180  PHE180     -0.0200
     51  CD1       10.7660   51.0340   18.6860 C.ar  180  PHE180     -0.0042
     52  CD2        8.9330   50.3370   17.2710 C.ar  180  PHE180     -0.0042
     53  CE1       11.3890   49.8050   18.5360 C.ar  180  PHE180     -0.0003
     54  CE2        9.5640   49.1150   17.0830 C.ar  180  PHE180     -0.0003
     55  CZ        10.7820   48.8670   17.7160 C.ar  180  PHE180     -0.0000
     56  N          6.0970   44.6750   27.3720 N.3   213  CYS213     -0.1221
     57  CA         5.4890   45.3130   26.2220 C.3   213  CYS213      0.1808
     58  C          5.4750   44.2580   25.1360 C.2   213  CYS213      0.2602
     59  O          5.1460   43.1070   25.3900 O.2   213  CYS213     -0.2717
     60  CB         6.1330   46.6460   25.8330 C.3   213  CYS213      0.0970
     61  SG         7.9430   46.4850   25.9450 S.3   213  CYS213     -0.0800
     62  N          5.8330   44.6550   23.9370 N.am  214  SER214     -0.1938
     63  CA         5.8920   43.6210   22.9140 C.3   214  SER214      0.2055
     64  C          7.2420   42.7950   22.9800 C.2   214  SER214      0.2642
     65  O          7.2520   41.5750   23.1250 O.2   214  SER214     -0.2714
     66  CB         5.5840   44.3070   21.5740 C.3   214  SER214      0.2130
     67  OG         5.5810   43.2200   20.5680 O.3   214  SER214     -0.2179
     68  N          8.3890   43.5130   22.9880 N.am  215  ALA215     -0.1977
     69  CA         9.7290   42.9170   23.1720 C.3   215  ALA215      0.1597
     70  C         10.1890   42.8220   24.6320 C.2   215  ALA215      0.2287
     71  O         11.0830   42.0560   24.9960 O.2   215  ALA215     -0.2864
     72  CB        10.6970   43.8810   22.5010 C.3   215  ALA215      0.0319
     73  N         11.4130   45.6050   26.3720 N.3   217  ILE217     -0.1231
     74  CA        12.5760   46.5010   26.5190 C.3   217  ILE217      0.1692
     75  C         12.2390   47.9790   26.3020 C.2   217  ILE217      0.2593
     76  O         12.6870   48.8370   27.0560 O.2   217  ILE217     -0.2718
     77  CB        13.7390   46.0970   25.5890 C.3   217  ILE217      0.0266
     78  CG1       13.3980   46.1290   24.0920 C.3   217  ILE217      0.0019
     79  CG2       14.3070   44.7460   26.0120 C.3   217  ILE217      0.0020
     80  CD1       14.6040   45.8070   23.2110 C.3   217  ILE217      0.0001
     81  N         11.4470   48.2580   25.2720 N.am  218  GLY218     -0.1942
     82  CA        11.3370   49.6980   24.9620 C.3   218  GLY218      0.2014
     83  C         10.5260   50.5510   25.9760 C.2   218  GLY218      0.2638
     84  O         11.0650   51.3020   26.7950 O.2   218  GLY218     -0.2714
     85  N          9.1990   50.3490   25.8850 N.am  219  ARG219     -0.1977
     86  CA         8.1550   50.8680   26.7840 C.3   219  ARG219      0.1597
     87  C          8.3580   50.4020   28.2670 C.2   219  ARG219      0.2287
     88  O          8.2540   51.1820   29.2020 O.2   219  ARG219     -0.2864
     89  CB         6.7550   50.5570   26.2160 C.3   219  ARG219      0.0334
     90  CG         6.4570   51.2680   24.8890 C.3   219  ARG219      0.0492
     91  CD         5.0710   50.8870   24.3580 C.3   219  ARG219      0.2205
     92  NE         5.1900   49.6010   23.6820 N.pl3 219  ARG219     -0.0865
     93  CZ         4.2330   49.1450   22.8930 C.cat 219  ARG219      0.5346
     94  NH1        3.1110   49.7870   22.7760 N.pl3 219  ARG219      0.1354
     95  NH2        4.4060   48.0870   22.1740 N.pl3 219  ARG219      0.1354
     96  N         14.0890   52.1320   23.8680 N.3   260  GLN260     -0.1245
     97  CA        14.2950   51.8920   22.4470 C.3   260  GLN260      0.1566
     98  C         14.5430   53.0930   21.5780 C.2   260  GLN260      0.2260
     99  O         15.1590   52.9190   20.5420 O.2   260  GLN260     -0.2867
    100  CB        13.2450   50.9570   21.9000 C.3   260  GLN260      0.0367
    101  CG        13.6160   49.5770   22.4480 C.3   260  GLN260      0.0905
    102  CD        14.7950   49.0640   21.6440 C.2   260  GLN260      0.2608
    103  OE1       14.6760   48.8770   20.4620 O.2   260  GLN260     -0.2717
    104  NE2       15.9610   48.9140   22.2390 N.am  260  GLN260     -0.0878
    105  N         11.9870   58.2990   23.9730 N.3   264  GLN264     -0.1245
    106  CA        11.7430   57.5770   25.2220 C.3   264  GLN264      0.1566
    107  C         12.6440   58.0430   26.4140 C.2   264  GLN264      0.2260
    108  O         12.1310   58.2540   27.4970 O.2   264  GLN264     -0.2867
    109  CB        11.8260   56.0690   24.9790 C.3   264  GLN264      0.0367
    110  CG        10.5190   55.5630   24.2930 C.3   264  GLN264      0.0905
    111  CD        10.5820   54.1160   23.8060 C.2   264  GLN264      0.2608
    112  OE1       11.6230   53.4800   23.8820 O.2   264  GLN264     -0.2717
    113  NE2        9.4500   53.6380   23.2780 N.am  264  GLN264     -0.0878
@<TRIPOS>BOND
     1    35    36    1
     2    35    34    1
     3    54    52   ar
     4    54    55   ar
     5    52    50   ar
     6    20    18   am
     7    18    17    1
     8    18    19    2
     9    17    14    1
    10     7     9   ar
    11     7     6   ar
    12     9    11   ar
    13    55    53   ar
    14    13    14    1
    15    34    33    1
    16    50    49    1
    17    50    51   ar
    18    28    29    1
    19    33    32    1
    20    49    46    1
    21     2     3    1
    22     2     5    1
    23     2     1    1
    24    14    15    1
    25     3     4    2
    26    53    51   ar
    27    12    11    1
    28     6     5    1
    29     6     8   ar
    30    11    10   ar
    31    40    39    2
    32    44    42   ar
    33    29    32    1
    34    29    30    1
    35    41    42    1
    36    41    38    1
    37    48    47    2
    38    42    43   ar
    39    39    45   am
    40    39    38    1
    41    46    47    1
    42    46    45    1
    43    15    16    2
    44    15    21   am
    45     8    10   ar
    46    38    37    1
    47    30    31    2
    48    21    22    1
    49   103   102    2
    50    99    98    2
    51    67    66    1
    52    26    25    1
    53    66    63    1
    54    98    97    1
    55   102   104   am
    56   102   101    1
    57    22    25    1
    58    22    23    1
    59   100    97    1
    60   100   101    1
    61    25    27    1
    62    95    93    1
    63    97    96    1
    64    72    69    1
    65    24    23    2
    66    94    93    1
    67    93    92    2
    68    63    64    1
    69    63    62    1
    70    64    68   am
    71    64    65    2
    72    68    69    1
    73    69    70    1
    74    80    78    1
    75   113   111   am
    76    92    91    1
    77   111   112    2
    78   111   110    1
    79    62    58   am
    80   105   106    1
    81    78    77    1
    82   110   109    1
    83    91    90    1
    84    70    71    2
    85    90    89    1
    86    82    81    1
    87    82    83    1
    88   109   106    1
    89    58    59    2
    90    58    57    1
    91   106   107    1
    92    81    75   am
    93    77    79    1
    94    77    74    1
    95    60    61    1
    96    60    57    1
    97    85    83   am
    98    85    86    1
    99    83    84    2
   100    89    86    1
   101    57    56    1
   102    75    74    1
   103    75    76    2
   104    73    74    1
   105   107   108    2
   106    86    87    1
   107    87    88    2
