@<TRIPOS>MOLECULE
tmp/1c88A00.pdb
 124 119 0 0 0
SMALL
GASTEIGER

@<TRIPOS>ATOM
      1  N         38.1870    9.3350    1.6340 N.3    45  TYR45      -0.1227
      2  CA        39.2910    8.8880    0.8110 C.3    45  TYR45       0.1736
      3  C         39.3900    7.3520    0.9630 C.2    45  TYR45       0.2595
      4  O         39.3700    6.7780    2.0230 O.2    45  TYR45      -0.2718
      5  CB        40.6400    9.5240    1.1930 C.3    45  TYR45       0.0548
      6  CG        40.6300   11.0230    1.1580 C.ar   45  TYR45      -0.0200
      7  CD1       40.5430   11.6460   -0.0840 C.ar   45  TYR45      -0.0009
      8  CD2       40.6370   11.8230    2.3200 C.ar   45  TYR45      -0.0009
      9  CE1       40.4360   13.0370   -0.1720 C.ar   45  TYR45       0.0417
     10  CE2       40.5780   13.2310    2.2250 C.ar   45  TYR45       0.0417
     11  CZ        40.4970   13.8400    0.9530 C.ar   45  TYR45       0.1957
     12  OH        40.5680   15.2110    0.7000 O.3    45  TYR45      -0.2866
     13  N         39.5240    6.7360   -0.2010 N.am   46  ARG46      -0.1966
     14  CA        39.5640    5.2780   -0.2640 C.3    46  ARG46       0.1729
     15  C         40.8260    4.7180    0.4120 C.2    46  ARG46       0.2616
     16  O         40.8590    3.5830    0.8480 O.2    46  ARG46      -0.2715
     17  CB        39.3630    4.8750   -1.7970 C.3    46  ARG46       0.0348
     18  CG        40.4750    4.1370   -2.5710 C.3    46  ARG46       0.0492
     19  CD        41.2080    4.8880   -3.7040 C.3    46  ARG46       0.2205
     20  NE        42.6830    4.5560   -3.7240 N.pl3  46  ARG46      -0.0865
     21  CZ        43.7590    5.3900   -3.5770 C.cat  46  ARG46       0.5346
     22  NH1       43.7160    6.7100   -3.5890 N.pl3  46  ARG46       0.1354
     23  NH2       44.9170    4.8260   -3.3400 N.pl3  46  ARG46       0.1354
     24  N         41.8640    5.5100    0.4230 N.am   47  ASP47      -0.1957
     25  CA        43.1150    5.0640    1.0390 C.3    47  ASP47       0.1840
     26  C         43.3760    5.5830    2.4980 C.2    47  ASP47       0.2621
     27  O         44.4700    5.5470    2.9950 O.2    47  ASP47      -0.2715
     28  CB        44.2000    5.5740    0.1250 C.3    47  ASP47       0.1450
     29  CG        44.3060    7.1080    0.0130 C.2    47  ASP47       0.3671
     30  OD1       43.2840    7.7890    0.0850 O.co2  47  ASP47      -0.2456
     31  OD2       45.4020    7.6070   -0.1900 O.co2  47  ASP47      -0.2456
     32  N         42.3480    6.1480    3.1460 N.am   48  VAL48      -0.1977
     33  CA        42.4580    6.6220    4.5280 C.3    48  VAL48       0.1596
     34  C         41.3210    6.0730    5.3250 C.2    48  VAL48       0.2287
     35  O         40.1860    6.5290    5.2900 O.2    48  VAL48      -0.2864
     36  CB        42.3980    8.1650    4.6420 C.3    48  VAL48       0.0276
     37  CG1       42.6410    8.5760    6.1370 C.3    48  VAL48       0.0022
     38  CG2       43.4370    8.8250    3.6870 C.3    48  VAL48       0.0022
     39  N         36.9330   20.1550    0.4750 N.3   119  LYS119     -0.1245
     40  CA        37.7440   19.2500    1.3020 C.3   119  LYS119      0.1561
     41  C         37.0310   18.7350    2.5860 C.2   119  LYS119      0.2260
     42  O         37.5520   17.8770    3.3150 O.2   119  LYS119     -0.2867
     43  CB        39.0400   19.9910    1.6590 C.3   119  LYS119      0.0271
     44  CG        39.9610   20.2090    0.4480 C.3   119  LYS119      0.0035
     45  CD        40.1870   19.0410   -0.5070 C.3   119  LYS119      0.0206
     46  CE        41.4780   18.2940   -0.2620 C.3   119  LYS119      0.1093
     47  NZ        41.7430   17.2410   -1.2920 N.3   119  LYS119     -0.1314
     48  N         46.6400   22.3750    2.4370 N.3   180  ASP180     -0.1225
     49  CA        46.6590   20.9510    2.2940 C.3   180  ASP180      0.1805
     50  C         48.0360   20.5100    1.7110 C.2   180  ASP180      0.2597
     51  O         48.6380   21.2440    0.9360 O.2   180  ASP180     -0.2718
     52  CB        45.3940   20.5810    1.5140 C.3   180  ASP180      0.1424
     53  CG        45.0970   19.0760    1.6430 C.2   180  ASP180      0.3668
     54  OD1       45.7560   18.4060    2.4370 O.co2 180  ASP180     -0.2456
     55  OD2       44.2200   18.5910    0.9450 O.co2 180  ASP180     -0.2456
     56  N         48.5420   19.3770    2.2350 N.am  181  PHE181     -0.1976
     57  CA        49.8680   18.9170    1.8530 C.3   181  PHE181      0.1639
     58  C         50.9710   19.9230    2.0910 C.2   181  PHE181      0.2290
     59  O         52.0640   19.7160    1.5770 O.2   181  PHE181     -0.2864
     60  CB        49.8420   18.4190    0.3730 C.3   181  PHE181      0.0560
     61  CG        48.8900   17.2230    0.2740 C.ar  181  PHE181     -0.0200
     62  CD1       49.0770   16.1240    1.1800 C.ar  181  PHE181     -0.0042
     63  CD2       47.8020   17.1870   -0.6190 C.ar  181  PHE181     -0.0042
     64  CE1       48.2190   15.0290    1.2090 C.ar  181  PHE181     -0.0003
     65  CE2       46.9620   16.0670   -0.6260 C.ar  181  PHE181     -0.0003
     66  CZ        47.1840   15.0140    0.2760 C.ar  181  PHE181     -0.0000
     67  N         41.5670   17.4720    9.6890 N.3   214  CYS214     -0.1221
     68  CA        41.9400   18.2490    8.5110 C.3   214  CYS214      0.1808
     69  C         40.9790   17.6990    7.4570 C.2   214  CYS214      0.2602
     70  O         39.8620   17.3560    7.7470 O.2   214  CYS214     -0.2717
     71  CB        43.4430   18.1460    8.1180 C.3   214  CYS214      0.0970
     72  SG        44.1400   16.4160    8.3450 S.3   214  CYS214     -0.0800
     73  N         41.4360   17.5640    6.1970 N.am  215  SER215     -0.1938
     74  CA        40.5270   16.9280    5.2590 C.3   215  SER215      0.2055
     75  C         40.4430   15.3310    5.4510 C.2   215  SER215      0.2642
     76  O         39.3600   14.7360    5.5090 O.2   215  SER215     -0.2714
     77  CB        40.9990   17.2680    3.7790 C.3   215  SER215      0.2130
     78  OG        40.0580   16.6660    2.8220 O.3   215  SER215     -0.2179
     79  N         41.6820   14.7300    5.5840 N.am  216  ALA216     -0.1977
     80  CA        41.7450   13.2540    5.7140 C.3   216  ALA216      0.1597
     81  C         41.9220   12.8650    7.2190 C.2   216  ALA216      0.2287
     82  O         41.7150   11.7180    7.6260 O.2   216  ALA216     -0.2864
     83  CB        42.9550   12.7310    4.9220 C.3   216  ALA216      0.0319
     84  N         44.9280   13.1390    8.8150 N.3   218  ILE218     -0.1231
     85  CA        46.2430   12.4200    8.9450 C.3   218  ILE218      0.1692
     86  C         47.4800   13.3560    8.7380 C.2   218  ILE218      0.2593
     87  O         48.4320   13.3790    9.5160 O.2   218  ILE218     -0.2718
     88  CB        46.3180   11.1300    8.0330 C.3   218  ILE218      0.0266
     89  CG1       46.2400   11.4480    6.5040 C.3   218  ILE218      0.0019
     90  CG2       45.2790   10.0460    8.4580 C.3   218  ILE218      0.0020
     91  CD1       46.3970   10.1690    5.6610 C.3   218  ILE218      0.0001
     92  N         47.4230   14.1620    7.6740 N.am  219  GLY219     -0.1942
     93  CA        48.6130   14.9660    7.3650 C.3   219  GLY219      0.2014
     94  C         48.8010   16.1580    8.2940 C.2   219  GLY219      0.2638
     95  O         49.6500   16.1490    9.1760 O.2   219  GLY219     -0.2714
     96  N         47.9520   17.1740    8.1030 N.am  220  ARG220     -0.1977
     97  CA        47.9360   18.2990    9.0530 C.3   220  ARG220      0.1597
     98  C         47.6650   17.8490   10.4840 C.2   220  ARG220      0.2287
     99  O         48.3630   18.2650   11.4100 O.2   220  ARG220     -0.2864
    100  CB        47.0540   19.4350    8.5780 C.3   220  ARG220      0.0334
    101  CG        47.5990   20.0050    7.2450 C.3   220  ARG220      0.0492
    102  CD        46.5770   20.9680    6.6010 C.3   220  ARG220      0.2205
    103  NE        45.5220   20.1840    5.8890 N.pl3 220  ARG220     -0.0865
    104  CZ        44.6200   20.8160    5.1090 C.cat 220  ARG220      0.5346
    105  NH1       44.6070   22.1450    5.0310 N.pl3 220  ARG220      0.1354
    106  NH2       43.7720   20.1340    4.3570 N.pl3 220  ARG220      0.1354
    107  N         51.9660   13.6640    6.2720 N.3   261  GLN261     -0.1245
    108  CA        51.7700   13.1650    4.8820 C.3   261  GLN261      0.1566
    109  C         52.9440   13.4930    3.9440 C.2   261  GLN261      0.2260
    110  O         53.0320   13.0240    2.8270 O.2   261  GLN261     -0.2867
    111  CB        50.4150   13.6820    4.3840 C.3   261  GLN261      0.0367
    112  CG        49.2330   12.7760    4.8390 C.3   261  GLN261      0.0905
    113  CD        49.3200   11.4690    4.0260 C.2   261  GLN261      0.2608
    114  OE1       49.1380   11.4450    2.8190 O.2   261  GLN261     -0.2717
    115  NE2       49.7030   10.4210    4.7130 N.am  261  GLN261     -0.0878
    116  N         56.4330   18.3670    6.2090 N.3   265  GLN265     -0.1245
    117  CA        55.6970   18.4550    7.4410 C.3   265  GLN265      0.1566
    118  C         56.4740   17.7930    8.6640 C.2   265  GLN265      0.2260
    119  O         56.4100   18.2350    9.8190 O.2   265  GLN265     -0.2867
    120  CB        54.3390   17.7720    7.2490 C.3   265  GLN265      0.0367
    121  CG        53.2380   18.5380    6.4830 C.3   265  GLN265      0.0905
    122  CD        52.0750   17.6390    6.0980 C.2   265  GLN265      0.2608
    123  OE1       52.0370   16.4360    6.3910 O.2   265  GLN265     -0.2717
    124  NE2       51.1040   18.2980    5.4870 N.am  265  GLN265     -0.0878
@<TRIPOS>BOND
     1    20    19    1
     2    20    21    2
     3    19    18    1
     4    22    21    1
     5    21    23    1
     6    18    17    1
     7    17    14    1
     8    47    46    1
     9    65    63   ar
    10    65    66   ar
    11    63    61   ar
    12    45    46    1
    13    45    44    1
    14    14    13    1
    15    14    15    1
    16    13     3   am
    17    31    29   ar
    18     9     7   ar
    19     9    11   ar
    20     7     6   ar
    21    29    30   ar
    22    29    28    1
    23    28    25    1
    24    61    60    1
    25    61    62   ar
    26    66    64   ar
    27    60    57    1
    28    15    24   am
    29    15    16    2
    30    24    25    1
    31    44    43    1
    32    39    40    1
    33    12    11    1
    34     2     3    1
    35     2     5    1
    36     2     1    1
    37    51    50    2
    38    55    53   ar
    39    11    10   ar
    40     3     4    2
    41    25    26    1
    42     6     5    1
    43     6     8   ar
    44    62    64   ar
    45    40    43    1
    46    40    41    1
    47    52    53    1
    48    52    49    1
    49    59    58    2
    50    53    54   ar
    51    50    56   am
    52    50    49    1
    53    57    58    1
    54    57    56    1
    55    10     8   ar
    56    49    48    1
    57    26    27    2
    58    26    32   am
    59    41    42    2
    60   114   113    2
    61    78    77    1
    62   110   109    2
    63    32    33    1
    64    38    36    1
    65    77    74    1
    66   109   108    1
    67   113   115   am
    68   113   112    1
    69   106   104    1
    70   111   112    1
    71   111   108    1
    72    33    36    1
    73    33    34    1
    74    36    37    1
    75   108   107    1
    76    83    80    1
    77   105   104    1
    78   104   103    2
    79    74    75    1
    80    74    73    1
    81    35    34    2
    82    75    76    2
    83    75    79   am
    84   124   122   am
    85    79    80    1
    86    91    89    1
    87    80    81    1
    88   103   102    1
    89   122   123    2
    90   122   121    1
    91    73    69   am
    92   116   117    1
    93   121   120    1
    94    89    88    1
    95   102   101    1
    96    81    82    2
    97   101   100    1
    98   120   117    1
    99    93    92    1
   100    93    94    1
   101   117   118    1
   102    69    70    2
   103    69    68    1
   104    92    86   am
   105    88    90    1
   106    88    85    1
   107    96    94   am
   108    96    97    1
   109    71    72    1
   110    71    68    1
   111    94    95    2
   112    68    67    1
   113   100    97    1
   114   118   119    2
   115    86    85    1
   116    86    87    2
   117    84    85    1
   118    97    98    1
   119    98    99    2
