@<TRIPOS>MOLECULE
tmp/1c8lA02.pdb
 114 111 0 0 0
SMALL
GASTEIGER

@<TRIPOS>ATOM
      1  N         33.8270   30.4970   36.4310 N.3   268  ASN268     -0.1225
      2  CA        34.5890   30.6270   35.1960 C.3   268  ASN268      0.1785
      3  C         34.3300   29.5050   34.1950 C.2   268  ASN268      0.2597
      4  O         34.6050   28.3360   34.4770 O.2   268  ASN268     -0.2718
      5  CB        36.0800   30.6540   35.5020 C.3   268  ASN268      0.1169
      6  CG        36.5140   31.9310   36.1800 C.2   268  ASN268      0.2627
      7  OD1       37.4530   31.9270   36.9830 O.2   268  ASN268     -0.2716
      8  ND2       35.8400   33.0340   35.8670 N.am  268  ASN268     -0.0877
      9  N         33.8050   29.8600   33.0260 N.am  269  ASP269     -0.1960
     10  CA        33.5610   28.8660   31.9850 C.3   269  ASP269      0.1840
     11  C         34.6320   29.0630   30.9090 C.2   269  ASP269      0.2622
     12  O         34.7270   30.1270   30.3060 O.2   269  ASP269     -0.2715
     13  CB        32.1630   29.0380   31.3820 C.3   269  ASP269      0.1450
     14  CG        31.8260   27.9550   30.3540 C.2   269  ASP269      0.3671
     15  OD1       31.3470   26.8730   30.7530 O.co2 269  ASP269     -0.2456
     16  OD2       32.0410   28.1950   29.1470 O.co2 269  ASP269     -0.2456
     17  N         35.4580   28.0460   30.6990 N.am  270  ASN270     -0.1958
     18  CA        36.5140   28.1230   29.7050 C.3   270  ASN270      0.1819
     19  C         37.5080   29.2380   29.9810 C.2   270  ASN270      0.2621
     20  O         37.8830   30.0070   29.0880 O.2   270  ASN270     -0.2715
     21  CB        35.9110   28.3060   28.3200 C.3   270  ASN270      0.1195
     22  CG        36.2340   27.1620   27.4160 C.2   270  ASN270      0.2630
     23  OD1       37.2320   27.1830   26.7030 O.2   270  ASN270     -0.2716
     24  ND2       35.3950   26.1330   27.4520 N.am  270  ASN270     -0.0877
     25  N         37.9410   29.3140   31.2310 N.am  271  PHE271     -0.1974
     26  CA        38.8950   30.3300   31.6120 C.3   271  PHE271      0.1639
     27  C         39.6000   29.9550   32.8930 C.2   271  PHE271      0.2290
     28  O         38.9600   29.5840   33.8730 O.2   271  PHE271     -0.2864
     29  CB        38.1940   31.6590   31.7900 C.3   271  PHE271      0.0560
     30  CG        39.1240   32.7750   32.1150 C.ar  271  PHE271     -0.0200
     31  CD1       39.9480   33.3180   31.1310 C.ar  271  PHE271     -0.0042
     32  CD2       39.1620   33.3030   33.4000 C.ar  271  PHE271     -0.0042
     33  CE1       40.7970   34.3760   31.4260 C.ar  271  PHE271     -0.0003
     34  CE2       40.0030   34.3600   33.7140 C.ar  271  PHE271     -0.0003
     35  CZ        40.8240   34.9020   32.7280 C.ar  271  PHE271     -0.0000
     36  N         41.7600   30.8180   36.1940 N.3   273  GLU273     -0.1245
     37  CA        42.0510   31.8480   37.1830 C.3   273  GLU273      0.1567
     38  C         42.8510   31.0970   38.2450 C.2   273  GLU273      0.2260
     39  O         42.3340   30.1750   38.8790 O.2   273  GLU273     -0.2867
     40  CB        40.7520   32.3970   37.7780 C.3   273  GLU273      0.0388
     41  CG        40.9060   33.7070   38.5390 C.3   273  GLU273      0.1160
     42  CD        39.6280   34.1340   39.2520 C.2   273  GLU273      0.3649
     43  OE1       38.6260   33.3840   39.2120 O.co2 273  GLU273     -0.2457
     44  OE2       39.6260   35.2280   39.8590 O.co2 273  GLU273     -0.2457
     45  N         43.8020   30.2040   27.0930 N.3   358  GLU358     -0.1245
     46  CA        43.3260   30.8530   28.3030 C.3   358  GLU358      0.1567
     47  C         42.4520   29.9850   29.2110 C.2   358  GLU358      0.2260
     48  O         42.2130   30.3350   30.3740 O.2   358  GLU358     -0.2867
     49  CB        42.5710   32.1320   27.9410 C.3   358  GLU358      0.0388
     50  CG        41.1970   31.8840   27.3500 C.3   358  GLU358      0.1160
     51  CD        41.1940   31.8660   25.8220 C.2   358  GLU358      0.3649
     52  OE1       42.2510   31.5800   25.2220 O.co2 358  GLU358     -0.2457
     53  OE2       40.1290   32.1360   25.2240 O.co2 358  GLU358     -0.2457
     54  N         30.3110   34.1160   25.5450 N.3   547  HIS547     -0.1226
     55  CA        31.7280   34.0130   25.1860 C.3   547  HIS547      0.1752
     56  C         32.0380   34.7350   23.8810 C.2   547  HIS547      0.2595
     57  O         31.1490   34.9570   23.0600 O.2   547  HIS547     -0.2718
     58  CB        32.1090   32.5410   25.0050 C.3   547  HIS547      0.0759
     59  CG        32.8070   31.9490   26.1860 C.ar  547  HIS547      0.0818
     60  ND1       34.1570   32.1160   26.4080 N.ar  547  HIS547     -0.2268
     61  CD2       32.3440   31.2140   27.2230 C.ar  547  HIS547      0.1154
     62  CE1       34.4950   31.5080   27.5300 C.ar  547  HIS547      0.1986
     63  NE2       33.4120   30.9530   28.0450 N.ar  547  HIS547     -0.2212
     64  N         33.3040   35.0950   23.6890 N.am  548  GLU548     -0.1979
     65  CA        33.7140   35.7350   22.4500 C.3   548  GLU548      0.1602
     66  C         33.7930   34.6130   21.4060 C.2   548  GLU548      0.2287
     67  O         33.3660   34.7790   20.2710 O.2   548  GLU548     -0.2864
     68  CB        35.0880   36.3790   22.5990 C.3   548  GLU548      0.0415
     69  CG        35.0530   37.8550   22.9050 C.3   548  GLU548      0.1163
     70  CD        36.3850   38.3660   23.4260 C.2   548  GLU548      0.3649
     71  OE1       36.7910   37.9620   24.5330 O.co2 548  GLU548     -0.2457
     72  OE2       37.0310   39.1710   22.7260 O.co2 548  GLU548     -0.2457
     73  N         30.9140   35.2530   33.0590 N.3   586  ALA586     -0.1245
     74  CA        31.6820   35.0900   34.2780 C.3   586  ALA586      0.1562
     75  C         31.8350   36.5010   34.8320 C.2   586  ALA586      0.2260
     76  O         31.9920   37.4540   34.0720 O.2   586  ALA586     -0.2867
     77  CB        33.0210   34.4840   33.9780 C.3   586  ALA586      0.0290
     78  N         34.1900   38.4650   36.1890 N.3   588  GLY588     -0.1210
     79  CA        35.2640   39.3390   35.7350 C.3   588  GLY588      0.1956
     80  C         35.5510   39.4010   34.2430 C.2   588  GLY588      0.2612
     81  O         36.6030   39.8900   33.8270 O.2   588  GLY588     -0.2717
     82  N         34.6170   38.9120   33.4350 N.am  589  TYR589     -0.1962
     83  CA        34.7550   38.8930   31.9750 C.3   589  TYR589      0.1771
     84  C         34.0930   40.1130   31.3400 C.2   589  TYR589      0.2619
     85  O         32.9450   40.0470   30.9020 O.2   589  TYR589     -0.2715
     86  CB        34.1000   37.6300   31.4440 C.3   589  TYR589      0.0574
     87  CG        34.4060   37.3160   30.0070 C.ar  589  TYR589     -0.0198
     88  CD1       35.2900   38.0970   29.2630 C.ar  589  TYR589     -0.0009
     89  CD2       33.8230   36.2100   29.3960 C.ar  589  TYR589     -0.0009
     90  CE1       35.5900   37.7780   27.9490 C.ar  589  TYR589      0.0417
     91  CE2       34.1080   35.8790   28.0940 C.ar  589  TYR589      0.0417
     92  CZ        34.9940   36.6600   27.3710 C.ar  589  TYR589      0.1957
     93  OH        35.2960   36.2840   26.0850 O.3   589  TYR589     -0.2866
     94  N         34.8260   41.2170   31.2760 N.am  590  HIS590     -0.1973
     95  CA        34.3000   42.4570   30.7210 C.3   590  HIS590      0.1656
     96  C         33.5630   42.3360   29.3960 C.2   590  HIS590      0.2291
     97  O         32.4000   42.7160   29.2980 O.2   590  HIS590     -0.2864
     98  CB        35.4240   43.4770   30.5760 C.3   590  HIS590      0.0771
     99  CG        34.9890   44.7760   29.9760 C.ar  590  HIS590      0.0820
    100  ND1       34.0130   45.5710   30.5340 N.ar  590  HIS590     -0.2267
    101  CD2       35.4140   45.4320   28.8640 C.ar  590  HIS590      0.1154
    102  CE1       33.8520   46.6590   29.7980 C.ar  590  HIS590      0.1986
    103  NE2       34.6930   46.5940   28.7800 N.ar  590  HIS590     -0.2212
    104  N         39.9870   37.7830   17.9820 N.3   746  ARG746     -0.1245
    105  CA        40.6510   36.4960   17.8280 C.3   746  ARG746      0.1563
    106  C         39.7130   35.4860   17.1990 C.2   746  ARG746      0.2260
    107  O         40.1350   34.4020   16.7790 O.2   746  ARG746     -0.2867
    108  CB        41.0740   35.9450   19.1830 C.3   746  ARG746      0.0307
    109  CG        42.1360   36.7360   19.8910 C.3   746  ARG746      0.0489
    110  CD        42.2800   36.2330   21.3220 C.3   746  ARG746      0.2205
    111  NE        42.5070   34.7910   21.3660 N.pl3 746  ARG746     -0.0865
    112  CZ        41.9990   33.9780   22.2880 C.cat 746  ARG746      0.5346
    113  NH1       41.2290   34.4680   23.2480 N.pl3 746  ARG746      0.1354
    114  NH2       42.2600   32.6740   22.2530 N.pl3 746  ARG746      0.1354
@<TRIPOS>BOND
     1   107   106    2
     2   106   105    1
     3   105   104    1
     4   105   108    1
     5   108   109    1
     6   109   110    1
     7    67    66    2
     8   110   111    1
     9   111   112    2
    10    66    65    1
    11   114   112    1
    12   112   113    1
    13    65    68    1
    14    65    64    1
    15    68    69    1
    16    72    70   ar
    17    69    70    1
    18    57    56    2
    19    70    71   ar
    20    64    56   am
    21    56    55    1
    22    58    55    1
    23    58    59    1
    24    55    54    1
    25    52    51   ar
    26    53    51   ar
    27    51    50    1
    28    93    92    1
    29    59    60   ar
    30    59    61   ar
    31    60    62   ar
    32    23    22    2
    33    45    46    1
    34    61    63   ar
    35    50    49    1
    36    92    90   ar
    37    92    91   ar
    38    22    24   am
    39    22    21    1
    40    62    63   ar
    41    49    46    1
    42    90    88   ar
    43    91    89   ar
    44    46    47    1
    45    21    18    1
    46   103   101   ar
    47   103   102   ar
    48   101    99   ar
    49    20    19    2
    50    16    14   ar
    51    47    48    2
    52    88    87   ar
    53    97    96    2
    54    89    87   ar
    55    96    95    1
    56    18    19    1
    57    18    17    1
    58   102   100   ar
    59    99   100   ar
    60    99    98    1
    61    19    25   am
    62    87    86    1
    63    12    11    2
    64    14    15   ar
    65    14    13    1
    66    98    95    1
    67    17    11   am
    68    95    94    1
    69    85    84    2
    70    11    10    1
    71    31    33   ar
    72    31    30   ar
    73    25    26    1
    74    94    84   am
    75    84    83    1
    76    13    10    1
    77    33    35   ar
    78    86    83    1
    79    26    29    1
    80    26    27    1
    81    29    30    1
    82    83    82    1
    83    10     9    1
    84    30    32   ar
    85    35    34   ar
    86    27    28    2
    87     9     3   am
    88    73    74    1
    89    32    34   ar
    90    82    80   am
    91    81    80    2
    92    77    74    1
    93    76    75    2
    94     3     4    2
    95     3     2    1
    96    80    79    1
    97    74    75    1
    98     2     5    1
    99     2     1    1
   100     5     6    1
   101    79    78    1
   102     8     6   am
   103     6     7    2
   104    36    37    1
   105    37    40    1
   106    37    38    1
   107    40    41    1
   108    38    39    2
   109    41    42    1
   110    43    42   ar
   111    42    44   ar
