@<TRIPOS>MOLECULE
tmp/1c8sA05.pdb
 78 73 0 0 0
SMALL
GASTEIGER

@<TRIPOS>ATOM
      1  N         23.8310   30.0780  -10.7290 N.3     6  TRP6       -0.1241
      2  CA        23.3170   28.8180  -10.1600 C.3     6  TRP6        0.1605
      3  C         24.2200   28.3190   -9.0510 C.2     6  TRP6        0.2264
      4  O         23.8210   27.8200   -7.9980 O.2     6  TRP6       -0.2867
      5  CB        23.1310   27.7830  -11.2520 C.3     6  TRP6        0.0550
      6  CG        24.3040   27.0630  -11.8120 C.ar    6  TRP6        0.0003
      7  CD1       24.9770   27.3610  -12.9700 C.ar    6  TRP6        0.0946
      8  CD2       24.9630   25.9120  -11.2670 C.ar    6  TRP6        0.0152
      9  NE1       26.0090   26.4770  -13.1750 N.ar    6  TRP6       -0.2442
     10  CE2       26.0190   25.5770  -12.1400 C.ar    6  TRP6        0.0810
     11  CE3       24.7580   25.1380  -10.1200 C.ar    6  TRP6        0.0012
     12  CZ2       26.8690   24.4970  -11.9020 C.ar    6  TRP6        0.0191
     13  CZ3       25.6020   24.0690   -9.8860 C.ar    6  TRP6        0.0001
     14  CH2       26.6440   23.7570  -10.7710 C.ar    6  TRP6        0.0015
     15  N         23.2890   27.1610   -5.6030 N.3    10  ALA10      -0.1245
     16  CA        23.6650   25.8260   -5.0880 C.3    10  ALA10       0.1562
     17  C         24.4120   25.8810   -3.7690 C.2    10  ALA10       0.2260
     18  O         24.1580   25.1460   -2.8080 O.2    10  ALA10      -0.2867
     19  CB        24.4760   25.0840   -6.1400 C.3    10  ALA10       0.0290
     20  N         21.7120   26.7470   -1.0780 N.3    13  THR13      -0.1203
     21  CA        20.9590   25.5280   -0.7280 C.3    13  THR13       0.1994
     22  C         21.7240   24.6650    0.2550 C.2    13  THR13       0.2617
     23  O         21.2590   24.3210    1.3490 O.2    13  THR13      -0.2717
     24  CB        20.6810   24.7710   -2.0350 C.3    13  THR13       0.1784
     25  OG1       19.9290   25.6470   -2.9010 O.3    13  THR13      -0.2211
     26  CG2       19.8470   23.5240   -1.8270 C.3    13  THR13       0.0376
     27  N         22.9580   24.3010   -0.1140 N.am   14  ALA14      -0.1979
     28  CA        23.7980   23.4450    0.7200 C.3    14  ALA14       0.1597
     29  C         23.9970   24.0210    2.1020 C.2    14  ALA14       0.2287
     30  O         23.7710   23.4040    3.1420 O.2    14  ALA14      -0.2864
     31  CB        25.1600   23.2370    0.0540 C.3    14  ALA14       0.0319
     32  N         20.5730   23.9270    4.0900 N.3    17  GLY17      -0.1210
     33  CA        20.2870   22.5650    4.5420 C.3    17  GLY17       0.1956
     34  C         21.1300   22.1540    5.7310 C.2    17  GLY17       0.2611
     35  O         20.6320   21.8070    6.8050 O.2    17  GLY17      -0.2717
     36  N         22.4490   22.2140    5.5580 N.am   18  LEU18      -0.1979
     37  CA        23.4120   21.7690    6.5590 C.3    18  LEU18       0.1596
     38  C         23.1350   22.4170    7.9010 C.2    18  LEU18       0.2287
     39  O         23.0350   21.7700    8.9450 O.2    18  LEU18      -0.2864
     40  CB        24.8300   22.0820    6.0830 C.3    18  LEU18       0.0297
     41  CG        25.4660   21.2460    4.9820 C.3    18  LEU18       0.0022
     42  CD1       24.4480   20.5340    4.1050 C.3    18  LEU18       0.0001
     43  CD2       26.3630   22.1020    4.0870 C.3    18  LEU18       0.0001
     44  N         19.9590   20.9950    9.4580 N.3    21  LEU21      -0.1245
     45  CA        20.4010   19.7140   10.0040 C.3    21  LEU21       0.1561
     46  C         21.0890   19.8840   11.3510 C.2    21  LEU21       0.2260
     47  O         20.7810   19.2330   12.3480 O.2    21  LEU21      -0.2867
     48  CB        21.3430   19.0300    9.0050 C.3    21  LEU21       0.0270
     49  CG        20.6110   18.4010    7.8090 C.3    21  LEU21       0.0019
     50  CD1       21.5660   17.9280    6.7320 C.3    21  LEU21       0.0001
     51  CD2       19.7280   17.2570    8.3020 C.3    21  LEU21       0.0001
     52  N         16.3600   27.2290    3.2150 N.3    50  PHE50      -0.1241
     53  CA        16.7220   26.0800    2.3770 C.3    50  PHE50       0.1605
     54  C         15.7110   25.8110    1.2860 C.2    50  PHE50       0.2264
     55  O         15.9790   25.6290    0.0950 O.2    50  PHE50      -0.2867
     56  CB        16.8810   24.8140    3.2520 C.3    50  PHE50       0.0534
     57  CG        16.7980   23.5630    2.3820 C.ar   50  PHE50      -0.0203
     58  CD1       17.8330   23.2460    1.5230 C.ar   50  PHE50      -0.0042
     59  CD2       15.6960   22.7210    2.4290 C.ar   50  PHE50      -0.0042
     60  CE1       17.7890   22.1180    0.7160 C.ar   50  PHE50      -0.0003
     61  CE2       15.6460   21.5980    1.6230 C.ar   50  PHE50      -0.0003
     62  CZ        16.6850   21.2910    0.7650 C.ar   50  PHE50      -0.0000
     63  N         16.5510   26.3530   -2.7580 N.3    54  LEU54      -0.1245
     64  CA        16.3070   25.2840   -3.7340 C.3    54  LEU54       0.1561
     65  C         15.3560   25.6820   -4.8360 C.2    54  LEU54       0.2260
     66  O         15.4520   25.3210   -6.0170 O.2    54  LEU54      -0.2867
     67  CB        15.7290   24.0600   -3.0120 C.3    54  LEU54       0.0270
     68  CG        15.5270   22.8350   -3.9190 C.3    54  LEU54       0.0019
     69  CD1       16.8170   22.4750   -4.6300 C.3    54  LEU54       0.0001
     70  CD2       15.0130   21.6580   -3.1060 C.3    54  LEU54       0.0001
     71  N         17.2150   27.8820   -7.1090 N.3    57  LEU57      -0.1245
     72  CA        18.1990   27.0380   -7.8080 C.3    57  LEU57       0.1561
     73  C         17.5000   26.3060   -8.9370 C.2    57  LEU57       0.2260
     74  O         17.8910   26.2780  -10.0980 O.2    57  LEU57      -0.2867
     75  CB        18.8410   26.0770   -6.8120 C.3    57  LEU57       0.0270
     76  CG        19.5830   24.8790   -7.4190 C.3    57  LEU57       0.0019
     77  CD1       20.6560   25.3510   -8.3820 C.3    57  LEU57       0.0001
     78  CD2       20.1370   24.0340   -6.2860 C.3    57  LEU57       0.0001
@<TRIPOS>BOND
     1     9     7   ar
     2     9    10   ar
     3     7     6   ar
     4    10    12   ar
     5    10     8   ar
     6    12    14   ar
     7     6     8   ar
     8     6     5    1
     9     8    11   ar
    10     5     2    1
    11    14    13   ar
    12     1     2    1
    13     2     3    1
    14    11    13   ar
    15    74    73    2
    16     3     4    2
    17    73    72    1
    18    77    76    1
    19    72    71    1
    20    72    75    1
    21    76    75    1
    22    76    78    1
    23    19    16    1
    24    66    65    2
    25    15    16    1
    26    16    17    1
    27    65    64    1
    28    69    68    1
    29    68    70    1
    30    68    67    1
    31    17    18    2
    32    64    67    1
    33    64    63    1
    34    25    24    1
    35    24    26    1
    36    24    21    1
    37    20    21    1
    38    21    22    1
    39    27    22   am
    40    27    28    1
    41    31    28    1
    42    55    54    2
    43    22    23    2
    44    60    62   ar
    45    60    58   ar
    46    28    29    1
    47    62    61   ar
    48    54    53    1
    49    58    57   ar
    50    61    59   ar
    51    29    30    2
    52    53    52    1
    53    53    56    1
    54    57    59   ar
    55    57    56    1
    56    43    41    1
    57    32    33    1
    58    42    41    1
    59    33    34    1
    60    41    40    1
    61    36    34   am
    62    36    37    1
    63    34    35    2
    64    40    37    1
    65    37    38    1
    66    50    49    1
    67    49    51    1
    68    49    48    1
    69    38    39    2
    70    48    45    1
    71    44    45    1
    72    45    46    1
    73    46    47    2
