@<TRIPOS>MOLECULE
tmp/1c8sA03.pdb
 80 77 0 0 0
SMALL
GASTEIGER

@<TRIPOS>ATOM
      1  N         13.4100   49.0430  -18.1260 N.3    68  GLY68      -0.1225
      2  CA        14.5590   49.6890  -18.7330 C.3    68  GLY68       0.1811
      3  C         14.8040   49.2150  -20.1550 C.2    68  GLY68       0.2280
      4  O         15.9400   49.0970  -20.6180 O.2    68  GLY68      -0.2866
      5  N         10.6510   51.4210  -14.2260 N.3   127  TYR127     -0.1227
      6  CA        11.9320   51.5300  -13.5420 C.3   127  TYR127      0.1736
      7  C         11.9350   52.6330  -12.4930 C.2   127  TYR127      0.2596
      8  O         12.3710   52.4230  -11.3610 O.2   127  TYR127     -0.2718
      9  CB        13.0440   51.7460  -14.5720 C.3   127  TYR127      0.0548
     10  CG        14.4410   51.4130  -14.1000 C.ar  127  TYR127     -0.0200
     11  CD1       14.7000   50.8740  -12.8490 C.ar  127  TYR127     -0.0009
     12  CD2       15.5290   51.6480  -14.9350 C.ar  127  TYR127     -0.0009
     13  CE1       15.9820   50.5770  -12.4350 C.ar  127  TYR127      0.0417
     14  CE2       16.8150   51.3550  -14.5310 C.ar  127  TYR127      0.0417
     15  CZ        17.0360   50.8210  -13.2840 C.ar  127  TYR127      0.1957
     16  OH        18.3250   50.5330  -12.8900 O.3   127  TYR127     -0.2866
     17  N         11.4420   53.8150  -12.8450 N.am  128  SER128     -0.1952
     18  CA        11.4370   54.9400  -11.9190 C.3   128  SER128      0.1924
     19  C         10.7930   54.6000  -10.5880 C.2   128  SER128      0.2314
     20  O         11.2930   55.0360   -9.5520 O.2   128  SER128     -0.2863
     21  CB        10.7090   56.1270  -12.5660 C.3   128  SER128      0.2116
     22  OG        10.2580   55.7640  -13.8710 O.3   128  SER128     -0.2180
     23  N         12.4340   52.4930   -7.2070 N.3   131  PHE131     -0.1227
     24  CA        13.1760   53.1250   -6.1220 C.3   131  PHE131      0.1736
     25  C         12.2570   53.7980   -5.1290 C.2   131  PHE131      0.2595
     26  O         12.5600   53.8740   -3.9400 O.2   131  PHE131     -0.2718
     27  CB        14.1630   54.1530   -6.7020 C.3   131  PHE131      0.0547
     28  CG        15.1450   53.4560   -7.6280 C.ar  131  PHE131     -0.0202
     29  CD1       16.1280   52.6480   -7.0840 C.ar  131  PHE131     -0.0042
     30  CD2       15.0520   53.6100   -8.9920 C.ar  131  PHE131     -0.0042
     31  CE1       17.0190   51.9920   -7.9150 C.ar  131  PHE131     -0.0003
     32  CE2       15.9480   52.9700   -9.8200 C.ar  131  PHE131     -0.0003
     33  CZ        16.9370   52.1610   -9.2820 C.ar  131  PHE131     -0.0000
     34  N         11.1080   54.2830   -5.6180 N.am  132  VAL132     -0.1980
     35  CA        10.1410   54.7730   -4.6290 C.3   132  VAL132      0.1595
     36  C          9.7930   53.6530   -3.6710 C.2   132  VAL132      0.2287
     37  O          9.7730   53.7990   -2.4550 O.2   132  VAL132     -0.2864
     38  CB         8.8540   55.2820   -5.3020 C.3   132  VAL132      0.0276
     39  CG1        8.0480   56.0730   -4.2880 C.3   132  VAL132      0.0022
     40  CG2        9.1810   56.0920   -6.5450 C.3   132  VAL132      0.0022
     41  N         11.6340   51.0700   -3.1760 N.3   134  TRP134     -0.1227
     42  CA        12.8900   50.8520   -2.4410 C.3   134  TRP134      0.1737
     43  C         13.0110   51.8160   -1.2970 C.2   134  TRP134      0.2595
     44  O         13.3530   51.5260   -0.1430 O.2   134  TRP134     -0.2718
     45  CB        14.0900   50.9830   -3.3920 C.3   134  TRP134      0.0564
     46  CG        15.4290   50.9420   -2.7090 C.ar  134  TRP134      0.0003
     47  CD1       16.1880   49.8270   -2.4950 C.ar  134  TRP134      0.0946
     48  CD2       16.1870   52.0230   -2.1480 C.ar  134  TRP134      0.0152
     49  NE1       17.3570   50.1360   -1.8450 N.ar  134  TRP134     -0.2442
     50  CE2       17.3800   51.4850   -1.6180 C.ar  134  TRP134      0.0810
     51  CE3       15.9840   53.3990   -2.0320 C.ar  134  TRP134      0.0012
     52  CZ2       18.3470   52.2720   -0.9950 C.ar  134  TRP134      0.0191
     53  CZ3       16.9420   54.1790   -1.4140 C.ar  134  TRP134      0.0001
     54  CH2       18.1130   53.6200   -0.8990 C.ar  134  TRP134      0.0015
     55  N         12.7200   53.1110   -1.5460 N.am  135  ALA135     -0.1980
     56  CA        12.8870   53.9860   -0.3650 C.3   135  ALA135      0.1597
     57  C         11.8360   53.7240    0.6840 C.2   135  ALA135      0.2287
     58  O         12.0950   53.7500    1.8980 O.2   135  ALA135     -0.2864
     59  CB        12.8680   55.4310   -0.8450 C.3   135  ALA135      0.0319
     60  N         20.1080   48.0650   -4.2140 N.3   164  LEU164     -0.1245
     61  CA        20.3220   49.2900   -4.9980 C.3   164  LEU164      0.1561
     62  C         21.4110   49.0940   -6.0280 C.2   164  LEU164      0.2260
     63  O         21.1720   49.3390   -7.2190 O.2   164  LEU164     -0.2867
     64  CB        20.6220   50.4570   -4.0570 C.3   164  LEU164      0.0270
     65  CG        20.4630   51.8470   -4.6820 C.3   164  LEU164      0.0019
     66  CD1       19.1120   51.9520   -5.3670 C.3   164  LEU164      0.0001
     67  CD2       20.6500   52.9280   -3.6300 C.3   164  LEU164      0.0001
     68  N         19.9340   49.9560   -9.4450 N.3   170  ALA170     -0.1245
     69  CA        20.6250   50.8180  -10.4100 C.3   170  ALA170      0.1562
     70  C         21.2270   49.9920  -11.5310 C.2   170  ALA170      0.2260
     71  O         21.4430   50.4400  -12.6560 O.2   170  ALA170     -0.2867
     72  CB        21.6720   51.6450   -9.6830 C.3   170  ALA170      0.0290
     73  N         24.2890   48.1760  -11.0850 N.3   172  ILE172     -0.1245
     74  CA        25.7140   48.5040  -11.1190 C.3   172  ILE172      0.1561
     75  C         26.6060   47.2740  -11.1010 C.2   172  ILE172      0.2260
     76  O         27.7330   47.3150  -11.6090 O.2   172  ILE172     -0.2867
     77  CB        26.0240   49.4440   -9.9390 C.3   172  ILE172      0.0252
     78  CG1       25.4270   50.8390  -10.1830 C.3   172  ILE172      0.0019
     79  CG2       27.5050   49.5060   -9.6350 C.3   172  ILE172      0.0019
     80  CD1       25.1160   51.0630  -11.6550 C.3   172  ILE172      0.0001
@<TRIPOS>BOND
     1     4     3    2
     2     3     2    1
     3     2     1    1
     4    12    14   ar
     5    12    10   ar
     6     9    10    1
     7     9     6    1
     8    14    15   ar
     9     5     6    1
    10    10    11   ar
    11    22    21    1
    12     6     7    1
    13    15    16    1
    14    15    13   ar
    15    11    13   ar
    16    17     7   am
    17    17    18    1
    18    71    70    2
    19    21    18    1
    20     7     8    2
    21    18    19    1
    22    80    78    1
    23    76    75    2
    24    70    69    1
    25    74    75    1
    26    74    73    1
    27    74    77    1
    28    19    20    2
    29    69    72    1
    30    69    68    1
    31    78    77    1
    32    77    79    1
    33    32    33   ar
    34    32    30   ar
    35    33    31   ar
    36    30    28   ar
    37    31    29   ar
    38    28    29   ar
    39    28    27    1
    40    63    62    2
    41    23    24    1
    42    27    24    1
    43    40    38    1
    44    24    25    1
    45    62    61    1
    46    34    25   am
    47    34    35    1
    48    66    65    1
    49    38    35    1
    50    38    39    1
    51    25    26    2
    52    61    60    1
    53    61    64    1
    54    65    64    1
    55    65    67    1
    56    35    36    1
    57    36    37    2
    58    45    46    1
    59    45    42    1
    60    41    42    1
    61    46    47   ar
    62    46    48   ar
    63    47    49   ar
    64    42    43    1
    65    48    51   ar
    66    48    50   ar
    67    51    53   ar
    68    49    50   ar
    69    50    52   ar
    70    55    43   am
    71    55    56    1
    72    53    54   ar
    73    43    44    2
    74    52    54   ar
    75    59    56    1
    76    56    57    1
    77    57    58    2
