@<TRIPOS>MOLECULE
tmp/1c8sA09.pdb
 73 68 0 0 0
SMALL
GASTEIGER

@<TRIPOS>ATOM
      1  N         17.2310   49.1380   19.1240 N.3   149  PHE149     -0.1241
      2  CA        18.3400   50.0040   19.5110 C.3   149  PHE149      0.1605
      3  C         17.8210   51.1710   20.3410 C.2   149  PHE149      0.2264
      4  O         17.0660   50.9820   21.2950 O.2   149  PHE149     -0.2867
      5  CB        19.0420   50.5110   18.2610 C.3   149  PHE149      0.0534
      6  CG        20.4620   51.0150   18.3410 C.ar  149  PHE149     -0.0203
      7  CD1       20.9210   51.7810   19.3950 C.ar  149  PHE149     -0.0042
      8  CD2       21.3560   50.7100   17.3230 C.ar  149  PHE149     -0.0042
      9  CE1       22.2230   52.2370   19.4500 C.ar  149  PHE149     -0.0003
     10  CE2       22.6580   51.1650   17.3660 C.ar  149  PHE149     -0.0003
     11  CZ        23.1010   51.9330   18.4270 C.ar  149  PHE149     -0.0000
     12  N         24.6030   45.2270   17.4260 N.3   150  ASN150     -0.1225
     13  CA        25.3120   46.0980   16.4920 C.3   150  ASN150      0.1785
     14  C         25.5140   45.4180   15.1460 C.2   150  ASN150      0.2597
     15  O         25.7690   46.0760   14.1330 O.2   150  ASN150     -0.2718
     16  CB        26.6520   46.5350   17.0850 C.3   150  ASN150      0.1169
     17  CG        26.5640   47.9050   17.7310 C.2   150  ASN150      0.2627
     18  OD1       27.3230   48.8060   17.3810 O.2   150  ASN150     -0.2716
     19  ND2       25.6450   48.0720   18.6720 N.am  150  ASN150     -0.0877
     20  N         25.3820   44.0920   15.0990 N.am  151  VAL151     -0.1980
     21  CA        25.5400   43.4080   13.8190 C.3   151  VAL151      0.1595
     22  C         24.2480   43.2780   13.0270 C.2   151  VAL151      0.2287
     23  O         24.3080   43.1220   11.7950 O.2   151  VAL151     -0.2864
     24  CB        26.1160   41.9840   14.0000 C.3   151  VAL151      0.0276
     25  CG1       27.2050   41.7520   12.9620 C.3   151  VAL151      0.0022
     26  CG2       26.6230   41.7820   15.4170 C.3   151  VAL151      0.0022
     27  N         22.0690   45.6020   12.5240 N.3   153  VAL153     -0.1231
     28  CA        22.1290   46.8510   11.7720 C.3   153  VAL153      0.1692
     29  C         22.9770   46.7280   10.5220 C.2   153  VAL153      0.2591
     30  O         22.5120   46.9040    9.3940 O.2   153  VAL153     -0.2718
     31  CB        22.6930   47.9660   12.6740 C.3   153  VAL153      0.0266
     32  CG1       22.7960   49.2720   11.9050 C.3   153  VAL153      0.0020
     33  CG2       21.8160   48.1400   13.9030 C.3   153  VAL153      0.0020
     34  N         24.2690   46.3980   10.6790 N.am  154  VAL154     -0.1980
     35  CA        25.0930   46.2860    9.4800 C.3   154  VAL154      0.1595
     36  C         24.6150   45.1820    8.5520 C.2   154  VAL154      0.2287
     37  O         24.6720   45.2980    7.3300 O.2   154  VAL154     -0.2864
     38  CB        26.5730   45.9810    9.7910 C.3   154  VAL154      0.0276
     39  CG1       27.3560   46.0100    8.4840 C.3   154  VAL154      0.0022
     40  CG2       27.1370   46.9510   10.8140 C.3   154  VAL154      0.0022
     41  N         21.2510   46.3640    6.9900 N.3   157  SER157     -0.1202
     42  CA        21.3430   47.5170    6.0780 C.3   157  SER157      0.2020
     43  C         21.9920   47.1400    4.7590 C.2   157  SER157      0.2618
     44  O         21.8760   47.8100    3.7240 O.2   157  SER157     -0.2717
     45  CB        22.0800   48.6790    6.7400 C.3   157  SER157      0.2103
     46  OG        21.8680   48.7210    8.1440 O.3   157  SER157     -0.2182
     47  N         22.7110   46.0090    4.7440 N.am  158  ALA158     -0.1979
     48  CA        23.3700   45.6200    3.4970 C.3   158  ALA158      0.1597
     49  C         22.3860   45.1200    2.4660 C.2   158  ALA158      0.2287
     50  O         22.6530   45.2260    1.2600 O.2   158  ALA158     -0.2864
     51  CB        24.4290   44.5530    3.7770 C.3   158  ALA158      0.0319
     52  N         21.4590   47.9900    0.2840 N.3   161  VAL161     -0.1231
     53  CA        22.5620   48.4040   -0.5830 C.3   161  VAL161      0.1692
     54  C         22.7440   47.4740   -1.7660 C.2   161  VAL161      0.2591
     55  O         22.8510   47.9090   -2.9130 O.2   161  VAL161     -0.2718
     56  CB        23.9360   48.4310    0.1260 C.3   161  VAL161      0.0266
     57  CG1       25.0040   48.7290   -0.9260 C.3   161  VAL161      0.0020
     58  CG2       23.9630   49.4340    1.2570 C.3   161  VAL161      0.0020
     59  N         22.8070   46.1630   -1.4990 N.am  162  VAL162     -0.1980
     60  CA        23.0060   45.2660   -2.6540 C.3   162  VAL162      0.1595
     61  C         21.8200   45.3770   -3.5910 C.2   162  VAL162      0.2287
     62  O         21.9340   45.2860   -4.8160 O.2   162  VAL162     -0.2864
     63  CB        23.2390   43.8050   -2.2250 C.3   162  VAL162      0.0276
     64  CG1       23.6220   42.9650   -3.4340 C.3   162  VAL162      0.0022
     65  CG2       24.3130   43.6820   -1.1500 C.3   162  VAL162      0.0022
     66  N         24.9120   37.1550    2.4200 N.3   185  LEU185     -0.1245
     67  CA        24.0890   37.8530    3.4220 C.3   185  LEU185      0.1561
     68  C         23.1180   36.9010    4.0860 C.2   185  LEU185      0.2260
     69  O         22.9850   36.8340    5.3140 O.2   185  LEU185     -0.2867
     70  CB        23.3920   39.0270    2.7130 C.3   185  LEU185      0.0270
     71  CG        24.3440   40.1770    2.3400 C.3   185  LEU185      0.0019
     72  CD1       23.6710   41.2160    1.4680 C.3   185  LEU185      0.0001
     73  CD2       24.8870   40.8230    3.6050 C.3   185  LEU185      0.0001
@<TRIPOS>BOND
     1    62    61    2
     2    61    60    1
     3    64    63    1
     4    55    54    2
     5    60    63    1
     6    60    59    1
     7    63    65    1
     8    54    59   am
     9    54    53    1
    10    57    56    1
    11    53    56    1
    12    53    52    1
    13    56    58    1
    14    50    49    2
    15    72    71    1
    16    71    70    1
    17    71    73    1
    18    66    67    1
    19    49    48    1
    20    70    67    1
    21    67    68    1
    22    48    51    1
    23    48    47    1
    24    44    43    2
    25    68    69    2
    26    47    43   am
    27    43    42    1
    28    42    45    1
    29    42    41    1
    30    45    46    1
    31    37    36    2
    32    39    38    1
    33    36    35    1
    34    30    29    2
    35    35    38    1
    36    35    34    1
    37    38    40    1
    38    29    34   am
    39    29    28    1
    40    28    27    1
    41    28    31    1
    42    23    22    2
    43    32    31    1
    44    31    33    1
    45    25    24    1
    46    22    21    1
    47    21    24    1
    48    21    20    1
    49    24    26    1
    50    15    14    2
    51    20    14   am
    52    14    13    1
    53    13    16    1
    54    13    12    1
    55    16    17    1
    56     8    10   ar
    57     8     6   ar
    58    10    11   ar
    59    18    17    2
    60    17    19   am
    61     5     6    1
    62     5     2    1
    63     6     7   ar
    64    11     9   ar
    65     1     2    1
    66     7     9   ar
    67     2     3    1
    68     3     4    2
