@<TRIPOS>MOLECULE
tmp/1c8sA00.pdb
 95 88 0 0 0
SMALL
GASTEIGER

@<TRIPOS>ATOM
      1  N         25.3940   26.7760   -3.6520 N.3    11  LEU11      -0.1245
      2  CA        26.0720   26.9650   -2.3730 C.3    11  LEU11       0.1561
      3  C         25.0580   27.3290   -1.3060 C.2    11  LEU11       0.2260
      4  O         25.1100   26.9880   -0.1280 O.2    11  LEU11      -0.2867
      5  CB        27.0800   28.1030   -2.5020 C.3    11  LEU11       0.0270
      6  CG        28.5830   27.9000   -2.4740 C.3    11  LEU11       0.0019
      7  CD1       29.2710   28.8140   -3.4840 C.3    11  LEU11       0.0001
      8  CD2       29.1430   28.1570   -1.0810 C.3    11  LEU11       0.0001
      9  N         24.4570   25.2810    2.1400 N.3    15  LEU15      -0.1245
     10  CA        24.6570   25.8510    3.4750 C.3    15  LEU15       0.1561
     11  C         23.3570   25.9420    4.2440 C.2    15  LEU15       0.2260
     12  O         23.3460   25.7780    5.4670 O.2    15  LEU15      -0.2867
     13  CB        25.3190   27.2280    3.3190 C.3    15  LEU15       0.0270
     14  CG        26.6480   27.2100    2.5410 C.3    15  LEU15       0.0019
     15  CD1       27.4290   28.4870    2.7720 C.3    15  LEU15       0.0001
     16  CD2       27.4540   25.9860    2.9460 C.3    15  LEU15       0.0001
     17  N         22.4490   22.2140    5.5580 N.3    18  LEU18      -0.1231
     18  CA        23.4120   21.7690    6.5590 C.3    18  LEU18       0.1693
     19  C         23.1350   22.4170    7.9010 C.2    18  LEU18       0.2592
     20  O         23.0350   21.7700    8.9450 O.2    18  LEU18      -0.2718
     21  CB        24.8300   22.0820    6.0830 C.3    18  LEU18       0.0284
     22  CG        25.4660   21.2460    4.9820 C.3    18  LEU18       0.0019
     23  CD1       24.4480   20.5340    4.1050 C.3    18  LEU18       0.0001
     24  CD2       26.3630   22.1020    4.0870 C.3    18  LEU18       0.0001
     25  N         22.9930   23.7510    7.8980 N.am   19  GLY19      -0.1957
     26  CA        22.7290   24.4500    9.1500 C.3    19  GLY19       0.1869
     27  C         21.4030   24.0390    9.7640 C.2    19  GLY19       0.2309
     28  O         21.2580   23.9790   10.9900 O.2    19  GLY19      -0.2863
     29  N         22.0340   20.8220   11.3370 N.3    22  TYR22      -0.1241
     30  CA        22.8090   21.1810   12.5040 C.3    22  TYR22       0.1605
     31  C         21.9350   21.7120   13.6180 C.2    22  TYR22       0.2264
     32  O         22.0080   21.2560   14.7550 O.2    22  TYR22      -0.2867
     33  CB        23.8640   22.2440   12.1270 C.3    22  TYR22       0.0534
     34  CG        24.6420   22.6870   13.3490 C.ar   22  TYR22      -0.0201
     35  CD1       25.6520   21.8770   13.8520 C.ar   22  TYR22      -0.0009
     36  CD2       24.3840   23.8830   13.9960 C.ar   22  TYR22      -0.0009
     37  CE1       26.3860   22.2410   14.9640 C.ar   22  TYR22       0.0417
     38  CE2       25.1110   24.2580   15.1110 C.ar   22  TYR22       0.0417
     39  CZ        26.1090   23.4370   15.5890 C.ar   22  TYR22       0.1957
     40  OH        26.8330   23.8050   16.6980 O.3    22  TYR22      -0.2866
     41  N         23.3580   35.7320   -1.0710 N.3   183  MET183     -0.1230
     42  CA        23.6260   34.4300   -0.4250 C.3   183  MET183      0.1702
     43  C         24.4940   34.5640    0.8120 C.2   183  MET183      0.2592
     44  O         24.1430   34.1030    1.9070 O.2   183  MET183     -0.2718
     45  CB        24.2830   33.4760   -1.4220 C.3   183  MET183      0.0401
     46  CG        24.5800   32.0950   -0.8420 C.3   183  MET183      0.0596
     47  SD        26.3520   31.8070   -0.6850 S.3   183  MET183     -0.1393
     48  CE        26.8610   31.9540   -2.3940 C.3   183  MET183      0.0692
     49  N         25.6460   35.2270    0.6380 N.am  184  VAL184     -0.1980
     50  CA        26.5280   35.4850    1.7830 C.3   184  VAL184      0.1595
     51  C         25.7470   36.1960    2.8660 C.2   184  VAL184      0.2287
     52  O         25.8530   35.9550    4.0590 O.2   184  VAL184     -0.2864
     53  CB        27.7520   36.3570    1.4140 C.3   184  VAL184      0.0276
     54  CG1       28.6800   36.4730    2.6220 C.3   184  VAL184      0.0022
     55  CG2       28.4940   35.8180    0.2100 C.3   184  VAL184      0.0022
     56  N         23.0960   33.5490    4.3010 N.3   187  VAL187     -0.1231
     57  CA        23.6770   32.5270    5.2050 C.3   187  VAL187      0.1692
     58  C         24.1270   33.1110    6.5240 C.2   187  VAL187      0.2592
     59  O         23.8800   32.5420    7.5950 O.2   187  VAL187     -0.2718
     60  CB        24.8460   31.7900    4.5350 C.3   187  VAL187      0.0266
     61  CG1       25.3500   30.6850    5.4460 C.3   187  VAL187      0.0020
     62  CG2       24.3980   31.2390    3.1940 C.3   187  VAL187      0.0020
     63  N         24.7780   34.2810    6.5360 N.am  188  SER188     -0.1952
     64  CA        25.2090   34.7530    7.8630 C.3   188  SER188      0.1924
     65  C         24.0340   35.0830    8.7580 C.2   188  SER188      0.2314
     66  O         24.0770   34.9050    9.9790 O.2   188  SER188     -0.2863
     67  CB        26.1070   35.9850    7.6950 C.3   188  SER188      0.2116
     68  OG        26.3020   36.1890    6.2970 O.3   188  SER188     -0.2180
     69  N         22.1380   31.3870    9.2510 N.3   191  VAL191     -0.1231
     70  CA        22.9000   30.4050   10.0190 C.3   191  VAL191      0.1692
     71  C         23.8460   31.0380   11.0180 C.2   191  VAL191      0.2592
     72  O         23.8190   30.7380   12.2150 O.2   191  VAL191     -0.2718
     73  CB        23.7200   29.4910    9.0820 C.3   191  VAL191      0.0266
     74  CG1       24.3230   28.3320    9.8650 C.3   191  VAL191      0.0020
     75  CG2       22.8770   28.9670    7.9280 C.3   191  VAL191      0.0020
     76  N         24.7380   31.9290   10.5790 N.am  192  GLY192     -0.1957
     77  CA        25.6740   32.4750   11.5530 C.3   192  GLY192      0.1869
     78  C         25.0210   33.2100   12.6980 C.2   192  GLY192      0.2309
     79  O         25.3470   32.9910   13.8710 O.2   192  GLY192     -0.2863
     80  N         23.7970   30.7360   14.8230 N.3   195  LEU195     -0.1231
     81  CA        24.9030   30.1640   15.5980 C.3   195  LEU195      0.1693
     82  C         25.3450   31.1240   16.6880 C.2   195  LEU195      0.2591
     83  O         25.3380   30.8280   17.8770 O.2   195  LEU195     -0.2718
     84  CB        26.0900   29.8580   14.6940 C.3   195  LEU195      0.0284
     85  CG        26.1300   28.4610   14.0740 C.3   195  LEU195      0.0019
     86  CD1       27.0450   28.4580   12.8630 C.3   195  LEU195      0.0001
     87  CD2       26.5730   27.4400   15.1030 C.3   195  LEU195      0.0001
     88  N         25.7380   32.3130   16.2370 N.am  196  ILE196     -0.1980
     89  CA        26.1730   33.3690   17.1390 C.3   196  ILE196      0.1595
     90  C         25.1470   33.5970   18.2400 C.2   196  ILE196      0.2287
     91  O         25.5080   33.5910   19.4210 O.2   196  ILE196     -0.2864
     92  CB        26.4070   34.6850   16.3800 C.3   196  ILE196      0.0276
     93  CG1       27.7180   34.7310   15.6010 C.3   196  ILE196      0.0022
     94  CG2       26.3030   35.8600   17.3350 C.3   196  ILE196      0.0022
     95  CD1       27.9660   33.5610   14.6720 C.3   196  ILE196      0.0001
@<TRIPOS>BOND
     1     1     2    1
     2     7     6    1
     3     5     6    1
     4     5     2    1
     5     6     8    1
     6    48    47    1
     7     2     3    1
     8    45    46    1
     9    45    42    1
    10     3     4    2
    11    41    42    1
    12    46    47    1
    13    42    43    1
    14    55    53    1
    15    49    43   am
    16    49    50    1
    17    43    44    2
    18    53    50    1
    19    53    54    1
    20    50    51    1
    21     9    10    1
    22    14    15    1
    23    14    16    1
    24    14    13    1
    25    51    52    2
    26    62    60    1
    27    13    10    1
    28    10    11    1
    29    24    22    1
    30    23    22    1
    31    11    12    2
    32    56    57    1
    33    60    57    1
    34    60    61    1
    35    22    21    1
    36    57    58    1
    37    17    18    1
    38    21    18    1
    39    68    67    1
    40    58    63   am
    41    58    59    2
    42    63    64    1
    43    18    19    1
    44    67    64    1
    45    64    65    1
    46    25    19   am
    47    25    26    1
    48    19    20    2
    49    75    73    1
    50    65    66    2
    51    73    74    1
    52    73    70    1
    53    26    27    1
    54    69    70    1
    55    27    28    2
    56    70    71    1
    57    76    71   am
    58    76    77    1
    59    71    72    2
    60    29    30    1
    61    77    78    1
    62    33    30    1
    63    33    34    1
    64    30    31    1
    65    78    79    2
    66    86    85    1
    67    34    35   ar
    68    34    36   ar
    69    31    32    2
    70    35    37   ar
    71    36    38   ar
    72    85    84    1
    73    85    87    1
    74    95    93    1
    75    84    81    1
    76    80    81    1
    77    37    39   ar
    78    38    39   ar
    79    39    40    1
    80    81    82    1
    81    93    92    1
    82    88    82   am
    83    88    89    1
    84    92    89    1
    85    92    94    1
    86    82    83    2
    87    89    90    1
    88    90    91    2
