@<TRIPOS>MOLECULE
tmp/1c8sA06.pdb
 87 82 0 0 0
SMALL
GASTEIGER

@<TRIPOS>ATOM
      1  N         14.0490   26.9250   12.1940 N.3    44  LEU44      -0.1245
      2  CA        13.0290   27.1450   11.1750 C.3    44  LEU44       0.1561
      3  C         13.4430   28.0870   10.0750 C.2    44  LEU44       0.2260
      4  O         13.1110   28.0090    8.8900 O.2    44  LEU44      -0.2867
      5  CB        11.8080   27.7040   11.9270 C.3    44  LEU44       0.0270
      6  CG        10.5620   26.8170   11.9180 C.3    44  LEU44       0.0019
      7  CD1        9.5190   27.3910   12.8600 C.3    44  LEU44       0.0001
      8  CD2       10.0540   26.6910   10.4910 C.3    44  LEU44       0.0001
      9  N         13.3330   27.1800    6.1310 N.3    48  ILE48      -0.1245
     10  CA        12.6180   27.9730    5.1200 C.3    48  ILE48       0.1561
     11  C         13.5380   28.4370    4.0290 C.2    48  ILE48       0.2260
     12  O         13.3420   28.3180    2.8130 O.2    48  ILE48      -0.2867
     13  CB        11.9770   29.1930    5.8330 C.3    48  ILE48       0.0252
     14  CG1       11.0200   28.8000    6.9530 C.3    48  ILE48       0.0019
     15  CG2       11.3180   30.1100    4.8210 C.3    48  ILE48       0.0019
     16  CD1       10.4000   29.9380    7.7250 C.3    48  ILE48       0.0001
     17  N         14.4050   25.7700    1.6430 N.3    51  THR51      -0.1203
     18  CA        13.4880   25.5310    0.5140 C.3    51  THR51       0.1994
     19  C         13.4560   26.6990   -0.4400 C.2    51  THR51       0.2617
     20  O         13.2730   26.5640   -1.6500 O.2    51  THR51      -0.2717
     21  CB        12.0430   25.2810    0.9920 C.3    51  THR51       0.1784
     22  OG1       11.6250   26.4670    1.6830 O.3    51  THR51      -0.2211
     23  CG2       11.9780   24.1170    1.9700 C.3    51  THR51       0.0376
     24  N         13.6440   27.9250    0.0700 N.am   52  MET52      -0.1979
     25  CA        13.5620   29.0060   -0.9340 C.3    52  MET52       0.1605
     26  C         14.7410   28.9400   -1.8720 C.2    52  MET52       0.2287
     27  O         14.6870   29.1270   -3.0900 O.2    52  MET52      -0.2864
     28  CB        13.4820   30.3520   -0.2090 C.3    52  MET52       0.0413
     29  CG        12.1440   30.5690    0.5100 C.3    52  MET52       0.0598
     30  SD        10.7890   30.5090   -0.6890 S.3    52  MET52      -0.1393
     31  CE        10.1350   28.8750   -0.3570 C.3    52  MET52       0.0692
     32  N         14.3260   26.4750   -4.4920 N.3    55  SER55      -0.1217
     33  CA        13.3840   26.7750   -5.5920 C.3    55  SER55       0.1889
     34  C         14.0460   27.7080   -6.5820 C.2    55  SER55       0.2288
     35  O         13.8930   27.6190   -7.7980 O.2    55  SER55      -0.2866
     36  CB        12.0850   27.3340   -5.0170 C.3    55  SER55       0.2089
     37  OG        12.1990   28.6770   -4.5810 O.3    55  SER55      -0.2183
     38  N         12.4950   28.1200  -10.2530 N.3    60  TYR60      -0.1241
     39  CA        11.0540   28.1600  -10.0770 C.3    60  TYR60       0.1605
     40  C         10.6180   29.4510   -9.3870 C.2    60  TYR60       0.2264
     41  O          9.5990   30.0390   -9.7490 O.2    60  TYR60      -0.2867
     42  CB        10.5680   26.9430   -9.2750 C.3    60  TYR60       0.0534
     43  CG         9.1400   27.1160   -8.7980 C.ar   60  TYR60      -0.0201
     44  CD1        8.0820   26.9690   -9.6850 C.ar   60  TYR60      -0.0009
     45  CD2        8.8440   27.4300   -7.4780 C.ar   60  TYR60      -0.0009
     46  CE1        6.7690   27.1240   -9.2820 C.ar   60  TYR60       0.0417
     47  CE2        7.5370   27.5870   -7.0670 C.ar   60  TYR60       0.0417
     48  CZ         6.5050   27.4330   -7.9680 C.ar   60  TYR60       0.1957
     49  OH         5.1960   27.5890   -7.5580 O.3    60  TYR60      -0.2866
     50  N         11.9540   36.2520   -7.2850 N.3    76  TRP76      -0.1241
     51  CA        10.9370   36.5530   -6.2670 C.3    76  TRP76       0.1605
     52  C         11.0060   35.6200   -5.0820 C.2    76  TRP76       0.2264
     53  O         10.4340   35.9030   -4.0190 O.2    76  TRP76      -0.2867
     54  CB         9.5450   36.5540   -6.9060 C.3    76  TRP76       0.0550
     55  CG         9.0210   35.2330   -7.3680 C.ar   76  TRP76       0.0003
     56  CD1        9.0110   34.8130   -8.6660 C.ar   76  TRP76       0.0946
     57  CD2        8.4410   34.1840   -6.5790 C.ar   76  TRP76       0.0152
     58  NE1        8.4580   33.5560   -8.7300 N.ar   76  TRP76      -0.2442
     59  CE2        8.1040   33.1510   -7.4670 C.ar   76  TRP76       0.0810
     60  CE3        8.1630   33.9830   -5.2200 C.ar   76  TRP76       0.0012
     61  CZ2        7.5130   31.9650   -7.0310 C.ar   76  TRP76       0.0191
     62  CZ3        7.5820   32.8120   -4.7830 C.ar   76  TRP76       0.0001
     63  CH2        7.2600   31.8040   -5.6990 C.ar   76  TRP76       0.0015
     64  N         10.0990   35.8940   -0.8490 N.3    80  ALA80      -0.1245
     65  CA         9.2510   34.8900   -0.1990 C.3    80  ALA80       0.1562
     66  C          9.9340   34.3920    1.0650 C.2    80  ALA80       0.2260
     67  O          9.2990   34.1220    2.0790 O.2    80  ALA80      -0.2867
     68  CB         8.9540   33.7140   -1.1060 C.3    80  ALA80       0.0290
     69  N          9.1140   35.4160    5.5750 N.3    84  PHE84      -0.1241
     70  CA         8.8790   34.5800    6.7650 C.3    84  PHE84       0.1605
     71  C         10.0630   34.5390    7.7060 C.2    84  PHE84       0.2264
     72  O          9.8970   34.3710    8.9200 O.2    84  PHE84      -0.2867
     73  CB         8.4960   33.1630    6.3080 C.3    84  PHE84       0.0534
     74  CG         7.3200   33.1680    5.3370 C.ar   84  PHE84      -0.0203
     75  CD1        6.0190   33.2580    5.8020 C.ar   84  PHE84      -0.0042
     76  CD2        7.5250   33.0810    3.9740 C.ar   84  PHE84      -0.0042
     77  CE1        4.9530   33.2640    4.9180 C.ar   84  PHE84      -0.0003
     78  CE2        6.4710   33.0950    3.0790 C.ar   84  PHE84      -0.0003
     79  CZ         5.1780   33.1890    3.5550 C.ar   84  PHE84      -0.0000
     80  N         10.7150   36.1770   12.1820 N.3    88  LEU88      -0.1245
     81  CA        11.0760   35.1630   13.1860 C.3    88  LEU88       0.1561
     82  C         12.3330   35.5930   13.9330 C.2    88  LEU88       0.2260
     83  O         12.4410   35.5130   15.1590 O.2    88  LEU88      -0.2867
     84  CB        11.2230   33.8020   12.4920 C.3    88  LEU88       0.0270
     85  CG         9.9140   33.1560   12.0060 C.3    88  LEU88       0.0019
     86  CD1       10.1370   32.1590   10.8820 C.3    88  LEU88       0.0001
     87  CD2        9.2120   32.4830   13.1770 C.3    88  LEU88       0.0001
@<TRIPOS>BOND
     1    38    39    1
     2    39    40    1
     3    39    42    1
     4    41    40    2
     5    44    46   ar
     6    44    43   ar
     7    46    48   ar
     8    42    43    1
     9    43    45   ar
    10    58    56   ar
    11    58    59   ar
    12    56    55   ar
    13    48    49    1
    14    48    47   ar
    15    35    34    2
    16    45    47   ar
    17    59    61   ar
    18    59    57   ar
    19    55    54    1
    20    55    57   ar
    21    50    51    1
    22    61    63   ar
    23    54    51    1
    24    34    33    1
    25    57    60   ar
    26    51    52    1
    27    63    62   ar
    28    33    36    1
    29    33    32    1
    30    60    62   ar
    31    52    53    2
    32    36    37    1
    33    27    26    2
    34    26    25    1
    35    20    19    2
    36    68    65    1
    37    25    28    1
    38    25    24    1
    39    64    65    1
    40    30    31    1
    41    30    29    1
    42    19    24   am
    43    19    18    1
    44    28    29    1
    45    65    66    1
    46    18    21    1
    47    18    17    1
    48    21    22    1
    49    21    23    1
    50    66    67    2
    51    12    11    2
    52    78    79   ar
    53    78    76   ar
    54    79    77   ar
    55    76    74   ar
    56    11    10    1
    57    15    13    1
    58    77    75   ar
    59    10    13    1
    60    10     9    1
    61    74    75   ar
    62    74    73    1
    63    69    70    1
    64    13    14    1
    65    73    70    1
    66    70    71    1
    67    14    16    1
    68    71    72    2
    69     4     3    2
    70     3     2    1
    71     8     6    1
    72    86    85    1
    73     2     5    1
    74     2     1    1
    75     6     5    1
    76     6     7    1
    77    85    84    1
    78    85    87    1
    79    80    81    1
    80    84    81    1
    81    81    82    1
    82    82    83    2
