@<TRIPOS>MOLECULE
tmp/1c8sA10.pdb
 95 88 0 0 0
SMALL
GASTEIGER

@<TRIPOS>ATOM
      1  N         20.5730   23.9270    4.0900 N.3    17  GLY17      -0.1225
      2  CA        20.2870   22.5650    4.5420 C.3    17  GLY17       0.1811
      3  C         21.1300   22.1540    5.7310 C.2    17  GLY17       0.2280
      4  O         20.6320   21.8070    6.8050 O.2    17  GLY17      -0.2866
      5  N         20.4210   23.7540    8.9000 N.3    20  THR20      -0.1203
      6  CA        19.1460   23.2690    9.4530 C.3    20  THR20       0.1994
      7  C         19.4060   21.9570   10.1970 C.2    20  THR20       0.2617
      8  O         19.1230   21.8670   11.3920 O.2    20  THR20      -0.2717
      9  CB        18.0620   23.0530    8.3940 C.3    20  THR20       0.1784
     10  OG1       17.9690   24.1750    7.5000 O.3    20  THR20      -0.2211
     11  CG2       16.6950   22.9230    9.0560 C.3    20  THR20       0.0376
     12  N         19.9590   20.9950    9.4580 N.am   21  LEU21      -0.1979
     13  CA        20.4010   19.7140   10.0040 C.3    21  LEU21       0.1596
     14  C         21.0890   19.8840   11.3510 C.2    21  LEU21       0.2287
     15  O         20.7810   19.2330   12.3480 O.2    21  LEU21      -0.2864
     16  CB        21.3430   19.0300    9.0050 C.3    21  LEU21       0.0297
     17  CG        20.6110   18.4010    7.8090 C.3    21  LEU21       0.0022
     18  CD1       21.5660   17.9280    6.7320 C.3    21  LEU21       0.0001
     19  CD2       19.7280   17.2570    8.3020 C.3    21  LEU21       0.0001
     20  N         18.8460   21.3470   13.8820 N.3    24  LEU24      -0.1245
     21  CA        17.8780   20.3010   14.2410 C.3    24  LEU24       0.1561
     22  C         18.5390   19.3610   15.2330 C.2    24  LEU24       0.2260
     23  O         18.0150   19.1150   16.3190 O.2    24  LEU24      -0.2867
     24  CB        17.3810   19.5680   13.0000 C.3    24  LEU24       0.0270
     25  CG        16.2240   20.2690   12.2740 C.3    24  LEU24       0.0019
     26  CD1       16.1160   19.8160   10.8310 C.3    24  LEU24       0.0001
     27  CD2       14.9240   20.0260   13.0270 C.3    24  LEU24       0.0001
     28  N         18.8840   20.8040   18.5940 N.3    27  GLY27      -0.1225
     29  CA        17.6840   21.1390   19.3500 C.3    27  GLY27       0.1811
     30  C         17.3050   20.0690   20.3460 C.2    27  GLY27       0.2280
     31  O         16.6940   20.3270   21.3860 O.2    27  GLY27      -0.2866
     32  N         13.2060   25.9640   24.1990 N.3    36  LYS36      -0.1245
     33  CA        12.5950   25.3510   23.0160 C.3    36  LYS36       0.1561
     34  C         12.1720   26.4480   22.0480 C.2    36  LYS36       0.2260
     35  O         12.3220   26.2930   20.8380 O.2    36  LYS36      -0.2867
     36  CB        11.4090   24.4720   23.4010 C.3    36  LYS36       0.0271
     37  CG        11.6320   23.6390   24.6490 C.3    36  LYS36       0.0035
     38  CD        10.3560   22.9830   25.1420 C.3    36  LYS36       0.0206
     39  CE        10.0970   21.6740   24.4120 C.3    36  LYS36       0.1093
     40  NZ         9.8650   20.5520   25.3660 N.3    36  LYS36      -0.1314
     41  N         15.1440   27.6530   20.1410 N.3    39  TYR39      -0.1227
     42  CA        15.6000   26.6140   19.2270 C.3    39  TYR39       0.1736
     43  C         14.6930   26.4720   18.0260 C.2    39  TYR39       0.2595
     44  O         15.1640   26.4620   16.8860 O.2    39  TYR39      -0.2718
     45  CB        15.7090   25.2820   19.9840 C.3    39  TYR39       0.0548
     46  CG        17.0770   25.1520   20.6300 C.ar   39  TYR39      -0.0200
     47  CD1       18.1760   24.7310   19.9020 C.ar   39  TYR39      -0.0009
     48  CD2       17.2460   25.4630   21.9700 C.ar   39  TYR39      -0.0009
     49  CE1       19.4230   24.6140   20.4920 C.ar   39  TYR39       0.0417
     50  CE2       18.4850   25.3510   22.5710 C.ar   39  TYR39       0.0417
     51  CZ        19.5650   24.9270   21.8260 C.ar   39  TYR39       0.1957
     52  OH        20.7940   24.8200   22.4330 O.3    39  TYR39      -0.2866
     53  N         13.3860   26.3680   18.2790 N.am   40  ALA40      -0.1980
     54  CA        12.4620   26.2980   17.1460 C.3    40  ALA40       0.1597
     55  C         12.6470   27.4690   16.2000 C.2    40  ALA40       0.2287
     56  O         12.7570   27.3010   14.9830 O.2    40  ALA40      -0.2864
     57  CB        11.0140   26.2350   17.6120 C.3    40  ALA40       0.0319
     58  N         15.8970   27.0620   14.2650 N.3    43  THR43      -0.1203
     59  CA        15.9400   25.9440   13.3250 C.3    43  THR43       0.1994
     60  C         15.1630   26.2260   12.0530 C.2    43  THR43       0.2617
     61  O         15.5310   25.8200   10.9560 O.2    43  THR43      -0.2717
     62  CB        15.3580   24.6570   13.9500 C.3    43  THR43       0.1784
     63  OG1       16.0000   24.3520   15.1930 O.3    43  THR43      -0.2211
     64  CG2       15.5800   23.4810   13.0060 C.3    43  THR43       0.0376
     65  N         14.0490   26.9250   12.1940 N.am   44  LEU44      -0.1979
     66  CA        13.0290   27.1450   11.1750 C.3    44  LEU44       0.1596
     67  C         13.4430   28.0870   10.0750 C.2    44  LEU44       0.2287
     68  O         13.1110   28.0090    8.8900 O.2    44  LEU44      -0.2864
     69  CB        11.8080   27.7040   11.9270 C.3    44  LEU44       0.0297
     70  CG        10.5620   26.8170   11.9180 C.3    44  LEU44       0.0022
     71  CD1        9.5190   27.3910   12.8600 C.3    44  LEU44       0.0001
     72  CD2       10.0540   26.6910   10.4910 C.3    44  LEU44       0.0001
     73  N         15.6020   26.4940    7.5810 N.3    47  ALA47      -0.1245
     74  CA        14.7580   25.4750    6.9150 C.3    47  ALA47       0.1562
     75  C         14.0470   26.1090    5.7560 C.2    47  ALA47       0.2260
     76  O         14.1380   25.7590    4.5820 O.2    47  ALA47      -0.2867
     77  CB        13.8200   24.8800    7.9500 C.3    47  ALA47       0.0290
     78  N         16.3600   27.2290    3.2150 N.3    50  PHE50      -0.1227
     79  CA        16.7220   26.0800    2.3770 C.3    50  PHE50       0.1736
     80  C         15.7110   25.8110    1.2860 C.2    50  PHE50       0.2596
     81  O         15.9790   25.6290    0.0950 O.2    50  PHE50      -0.2718
     82  CB        16.8810   24.8140    3.2520 C.3    50  PHE50       0.0547
     83  CG        16.7980   23.5630    2.3820 C.ar   50  PHE50      -0.0202
     84  CD1       17.8330   23.2460    1.5230 C.ar   50  PHE50      -0.0042
     85  CD2       15.6960   22.7210    2.4290 C.ar   50  PHE50      -0.0042
     86  CE1       17.7890   22.1180    0.7160 C.ar   50  PHE50      -0.0003
     87  CE2       15.6460   21.5980    1.6230 C.ar   50  PHE50      -0.0003
     88  CZ        16.6850   21.2910    0.7650 C.ar   50  PHE50      -0.0000
     89  N         14.4050   25.7700    1.6430 N.am   51  THR51      -0.1953
     90  CA        13.4880   25.5310    0.5140 C.3    51  THR51       0.1897
     91  C         13.4560   26.6990   -0.4400 C.2    51  THR51       0.2313
     92  O         13.2730   26.5640   -1.6500 O.2    51  THR51      -0.2863
     93  CB        12.0430   25.2810    0.9920 C.3    51  THR51       0.1794
     94  OG1       11.6250   26.4670    1.6830 O.3    51  THR51      -0.2208
     95  CG2       11.9780   24.1170    1.9700 C.3    51  THR51       0.0378
@<TRIPOS>BOND
     1    92    91    2
     2    91    90    1
     3    81    80    2
     4    90    93    1
     5    90    89    1
     6    86    88   ar
     7    86    84   ar
     8    88    87   ar
     9    93    94    1
    10    93    95    1
    11    80    89   am
    12    80    79    1
    13    84    83   ar
    14    87    85   ar
    15    79    78    1
    16    79    82    1
    17    83    85   ar
    18    83    82    1
    19     1     2    1
    20     2     3    1
    21    76    75    2
    22     3     4    2
    23    75    74    1
    24    18    17    1
    25    74    73    1
    26    74    77    1
    27    10     9    1
    28    17    19    1
    29    17    16    1
    30     9    11    1
    31     9     6    1
    32    68    67    2
    33     5     6    1
    34    16    13    1
    35     6     7    1
    36    12    13    1
    37    12     7   am
    38    13    14    1
    39    67    66    1
    40     7     8    2
    41    72    70    1
    42    26    25    1
    43    61    60    2
    44    66    69    1
    45    66    65    1
    46    14    15    2
    47    70    69    1
    48    70    71    1
    49    60    65   am
    50    60    59    1
    51    25    24    1
    52    25    27    1
    53    24    21    1
    54    64    62    1
    55    59    62    1
    56    59    58    1
    57    20    21    1
    58    62    63    1
    59    21    22    1
    60    56    55    2
    61    22    23    2
    62    55    54    1
    63    44    43    2
    64    54    57    1
    65    54    53    1
    66    43    53   am
    67    43    42    1
    68    28    29    1
    69    42    45    1
    70    42    41    1
    71    29    30    1
    72    47    49   ar
    73    47    46   ar
    74    45    46    1
    75    30    31    2
    76    49    51   ar
    77    46    48   ar
    78    35    34    2
    79    51    52    1
    80    51    50   ar
    81    48    50   ar
    82    34    33    1
    83    33    36    1
    84    33    32    1
    85    36    37    1
    86    39    38    1
    87    39    40    1
    88    37    38    1
