@<TRIPOS>MOLECULE
tmp/1c8tB00.pdb
 207 205 0 0 0
SMALL
GASTEIGER

@<TRIPOS>ATOM
      1  N        -14.0260  -19.8010    0.5130 N.3    76  GLY76      -0.1210
      2  CA       -13.6010  -19.4840    1.8510 C.3    76  GLY76       0.1956
      3  C        -12.5640  -18.3770    1.8670 C.2    76  GLY76       0.2612
      4  O        -12.3190  -17.6260    0.9290 O.2    76  GLY76      -0.2717
      5  N        -11.8540  -18.3430    2.9840 N.am   77  ASN77      -0.1960
      6  CA       -10.8180  -17.3790    3.2870 C.3    77  ASN77       0.1819
      7  C        -11.2050  -16.0740    2.6390 C.2    77  ASN77       0.2621
      8  O        -12.2790  -15.6220    2.9980 O.2    77  ASN77      -0.2715
      9  CB        -9.4560  -17.9150    2.8940 C.3    77  ASN77       0.1195
     10  CG        -8.4400  -17.5120    3.9690 C.2    77  ASN77       0.2630
     11  OD1       -8.0980  -18.3450    4.8190 O.2    77  ASN77      -0.2716
     12  ND2       -8.0190  -16.2590    3.8880 N.am   77  ASN77      -0.0877
     13  N        -10.5120  -15.5540    1.6400 N.am   78  VAL78      -0.1963
     14  CA       -10.8830  -14.2810    1.0290 C.3    78  VAL78       0.1727
     15  C        -12.0780  -14.2890    0.0860 C.2    78  VAL78       0.2616
     16  O        -12.1440  -15.0480   -0.8680 O.2    78  VAL78      -0.2715
     17  CB        -9.6540  -13.6860    0.3310 C.3    78  VAL78       0.0290
     18  CG1       -9.9650  -12.5290   -0.5860 C.3    78  VAL78       0.0023
     19  CG2       -8.7020  -13.2330    1.4390 C.3    78  VAL78       0.0023
     20  N        -13.0610  -13.4250    0.3200 N.am   79  LEU79      -0.1963
     21  CA       -14.2780  -13.1760   -0.3850 C.3    79  LEU79       0.1728
     22  C        -14.2260  -12.1350   -1.4980 C.2    79  LEU79       0.2616
     23  O        -15.0300  -12.1430   -2.4380 O.2    79  LEU79      -0.2715
     24  CB       -15.2280  -12.5830    0.6720 C.3    79  LEU79       0.0311
     25  CG       -15.5180  -13.3540    1.9600 C.3    79  LEU79       0.0022
     26  CD1      -16.5820  -12.5850    2.7420 C.3    79  LEU79       0.0001
     27  CD2      -15.9850  -14.7630    1.6960 C.3    79  LEU79       0.0001
     28  N        -13.3100  -11.1980   -1.3540 N.am   80  ALA80      -0.1963
     29  CA       -13.0570  -10.0730   -2.2270 C.3    80  ALA80       0.1728
     30  C        -11.8390   -9.2910   -1.7520 C.2    80  ALA80       0.2616
     31  O        -11.1520   -9.6980   -0.8200 O.2    80  ALA80      -0.2715
     32  CB       -14.2380   -9.1060   -2.2390 C.3    80  ALA80       0.0334
     33  N        -11.5270   -8.1780   -2.3550 N.am   81  HIS81      -0.1959
     34  CA       -10.4530   -7.2650   -2.0130 C.3    81  HIS81       0.1787
     35  C        -10.6550   -6.0360   -2.9050 C.2    81  HIS81       0.2616
     36  O        -11.2250   -6.0960   -4.0000 O.2    81  HIS81      -0.2715
     37  CB        -9.0540   -7.8730   -2.1010 C.3    81  HIS81       0.0785
     38  CG        -8.5540   -8.3340   -3.4220 C.ar   81  HIS81       0.0821
     39  ND1       -8.0240   -9.6000   -3.5920 N.ar   81  HIS81      -0.2267
     40  CD2       -8.5710   -7.7730   -4.6450 C.ar   81  HIS81       0.1154
     41  CE1       -7.7300   -9.7760   -4.8700 C.ar   81  HIS81       0.1986
     42  NE2       -8.0540   -8.6770   -5.5270 N.ar   81  HIS81      -0.2212
     43  N        -10.2130   -4.8680   -2.4850 N.am   82  ALA82      -0.2030
     44  CA       -10.3770   -3.6280   -3.2430 C.3    82  ALA82       0.1283
     45  C         -9.0630   -2.8930   -2.9410 C.3    82  ALA82       0.2036
     46  O         -8.4150   -3.3730   -2.0100 O.3    82  ALA82      -0.2185
     47  CB       -11.5180   -2.7160   -2.8500 C.3    82  ALA82       0.0262
     48  N        -17.0610  -17.9910   -4.4860 N.3    99  GLU99      -0.1245
     49  CA       -17.9170  -17.7420   -3.3220 C.3    99  GLU99       0.1567
     50  C        -19.3280  -17.6610   -3.9420 C.2    99  GLU99       0.2260
     51  O        -19.3650  -17.4210   -5.1540 O.2    99  GLU99      -0.2867
     52  CB       -17.6370  -16.4200   -2.6300 C.3    99  GLU99       0.0388
     53  CG       -16.1870  -16.0760   -2.3710 C.3    99  GLU99       0.1160
     54  CD       -15.4850  -17.1600   -1.5620 C.2    99  GLU99       0.3649
     55  OE1      -16.1830  -17.9060   -0.8360 O.co2  99  GLU99      -0.2457
     56  OE2      -14.2470  -17.2580   -1.7110 O.co2  99  GLU99      -0.2457
     57  N        -22.7850  -15.7170    1.2820 N.3   108  THR108     -0.1218
     58  CA       -22.1750  -14.4090    1.0880 C.3   108  THR108      0.1862
     59  C        -23.0930  -13.4310    0.3590 C.2   108  THR108      0.2287
     60  O        -23.3530  -13.5860   -0.8390 O.2   108  THR108     -0.2866
     61  CB       -20.8980  -14.5900    0.2640 C.3   108  THR108      0.1770
     62  OG1      -20.3430  -15.9110    0.4480 O.3   108  THR108     -0.2211
     63  CG2      -19.7860  -13.6280    0.6930 C.3   108  THR108      0.0375
     64  N        -23.4090   -6.4130    1.0470 N.3   112  LEU112     -0.1231
     65  CA       -22.6220   -6.2600    2.2400 C.3   112  LEU112      0.1693
     66  C        -21.1350   -6.1960    1.8830 C.2   112  LEU112      0.2591
     67  O        -20.5150   -5.1850    2.2200 O.2   112  LEU112     -0.2718
     68  CB       -22.8650   -7.3210    3.3160 C.3   112  LEU112      0.0284
     69  CG       -24.3190   -7.6290    3.6760 C.3   112  LEU112      0.0019
     70  CD1      -24.3750   -8.9920    4.3450 C.3   112  LEU112      0.0001
     71  CD2      -24.9590   -6.5370    4.5320 C.3   112  LEU112      0.0001
     72  N        -20.5470   -7.1750    1.2130 N.am  113  VAL113     -0.1980
     73  CA       -19.1530   -7.1940    0.7930 C.3   113  VAL113      0.1595
     74  C        -18.8080   -6.0010   -0.1000 C.2   113  VAL113      0.2287
     75  O        -17.8340   -5.2870    0.1500 O.2   113  VAL113     -0.2864
     76  CB       -18.7960   -8.4770    0.0220 C.3   113  VAL113      0.0276
     77  CG1      -17.2900   -8.5600   -0.2290 C.3   113  VAL113      0.0022
     78  CG2      -19.2940   -9.7360    0.7090 C.3   113  VAL113      0.0022
     79  N        -18.4330   -2.9060    1.8500 N.3   116  HIS116     -0.1226
     80  CA       -17.1450   -2.8530    2.5660 C.3   116  HIS116      0.1752
     81  C        -16.0490   -2.5790    1.5430 C.2   116  HIS116      0.2595
     82  O        -15.2190   -1.7220    1.8550 O.2   116  HIS116     -0.2718
     83  CB       -16.9870   -4.1040    3.3940 C.3   116  HIS116      0.0759
     84  CG       -15.6690   -4.6460    3.8150 C.ar  116  HIS116      0.0818
     85  ND1      -15.1830   -4.5400    5.1070 N.ar  116  HIS116     -0.2268
     86  CD2      -14.7110   -5.3340    3.1550 C.ar  116  HIS116      0.1154
     87  CE1      -14.0030   -5.1210    5.2100 C.ar  116  HIS116      0.1986
     88  NE2      -13.6870   -5.6120    4.0320 N.ar  116  HIS116     -0.2212
     89  N        -16.0520   -3.1360    0.3350 N.am  117  GLN117     -0.1979
     90  CA       -15.0160   -2.9020   -0.6420 C.3   117  GLN117      0.1601
     91  C        -14.8800   -1.4630   -1.0910 C.2   117  GLN117      0.2287
     92  O        -13.7950   -0.9350   -1.3780 O.2   117  GLN117     -0.2864
     93  CB       -15.2630   -3.8620   -1.8220 C.3   117  GLN117      0.0394
     94  CG       -15.1290   -5.3250   -1.3760 C.3   117  GLN117      0.0908
     95  CD       -13.7910   -5.6230   -0.7470 C.2   117  GLN117      0.2608
     96  OE1      -12.7340   -5.1060   -1.1340 O.2   117  GLN117     -0.2717
     97  NE2      -13.8200   -6.4860    0.2760 N.am  117  GLN117     -0.0878
     98  N        -12.8730    0.5480    1.1600 N.3   120  HIS120     -0.1241
     99  CA       -11.4740    0.4540    0.7100 C.3   120  HIS120      0.1621
    100  C        -11.3410    1.3340   -0.5260 C.2   120  HIS120      0.2264
    101  O        -10.6760    2.3620   -0.4650 O.2   120  HIS120     -0.2867
    102  CB       -11.1340   -0.9950    0.4160 C.3   120  HIS120      0.0745
    103  CG       -11.1700   -1.9050    1.6060 C.ar  120  HIS120      0.0817
    104  ND1      -10.6190   -1.4740    2.7970 N.ar  120  HIS120     -0.2268
    105  CD2      -11.6430   -3.1570    1.8040 C.ar  120  HIS120      0.1154
    106  CE1      -10.7610   -2.4570    3.6870 C.ar  120  HIS120      0.1986
    107  NE2      -11.3650   -3.5050    3.1100 N.ar  120  HIS120     -0.2212
    108  N         -9.2610   -1.4990    7.6740 N.3   126  HIS126     -0.1241
    109  CA       -10.1820   -2.1710    8.6080 C.3   126  HIS126      0.1621
    110  C        -10.2370   -1.5170   10.0040 C.2   126  HIS126      0.2264
    111  O         -9.3400   -0.8470   10.5320 O.2   126  HIS126     -0.2867
    112  CB        -9.8850   -3.6360    8.7310 C.3   126  HIS126      0.0745
    113  CG        -9.9700   -4.4170    7.4640 C.ar  126  HIS126      0.0817
    114  ND1       -9.0250   -5.3770    7.1490 N.ar  126  HIS126     -0.2268
    115  CD2      -10.8660   -4.4220    6.4650 C.ar  126  HIS126      0.1154
    116  CE1       -9.3400   -5.9290    5.9890 C.ar  126  HIS126      0.1986
    117  NE2      -10.4470   -5.3600    5.5490 N.ar  126  HIS126     -0.2212
    118  N        -18.8840   -4.3150   15.7450 N.3   131  GLU131     -0.1231
    119  CA       -20.0730   -3.8880   15.0110 C.3   131  GLU131      0.1699
    120  C        -19.8750   -3.1650   13.6910 C.2   131  GLU131      0.2592
    121  O        -20.9050   -2.9180   13.0330 O.2   131  GLU131     -0.2718
    122  CB       -20.8610   -2.9670   15.9700 C.3   131  GLU131      0.0402
    123  CG       -22.1490   -3.5730   16.4840 C.3   131  GLU131      0.1161
    124  CD       -22.0550   -4.3890   17.7510 C.2   131  GLU131      0.3649
    125  OE1      -22.2090   -3.7970   18.8560 O.co2 131  GLU131     -0.2457
    126  OE2      -21.8650   -5.6250   17.6490 O.co2 131  GLU131     -0.2457
    127  N        -18.6770   -2.7740   13.2590 N.am  132  ALA132     -0.1966
    128  CA       -18.5860   -1.8910   12.0720 C.3   132  ALA132      0.1728
    129  C        -18.5180   -2.5530   10.7020 C.2   132  ALA132      0.2616
    130  O        -18.1790   -3.7230   10.6010 O.2   132  ALA132     -0.2715
    131  CB       -17.3920   -0.9550   12.2510 C.3   132  ALA132      0.0334
    132  N        -18.7730   -1.7980    9.6350 N.am  133  LEU133     -0.1977
    133  CA       -18.7530   -2.2480    8.2660 C.3   133  LEU133      0.1596
    134  C        -17.3510   -2.5900    7.7310 C.2   133  LEU133      0.2287
    135  O        -17.2250   -3.6610    7.1070 O.2   133  LEU133     -0.2864
    136  CB       -19.3880   -1.3100    7.2320 C.3   133  LEU133      0.0297
    137  CG       -19.4210   -1.9500    5.8240 C.3   133  LEU133      0.0022
    138  CD1      -20.3240   -3.1620    5.8350 C.3   133  LEU133      0.0001
    139  CD2      -19.8520   -0.9470    4.7610 C.3   133  LEU133      0.0001
    140  N        -14.9650   -3.8340    9.3610 N.3   135  TYR135     -0.1228
    141  CA       -14.3430   -4.8690   10.1920 C.3   135  TYR135      0.1721
    142  C        -13.7810   -5.9010    9.2260 C.2   135  TYR135      0.2437
    143  O        -14.3560   -6.1330    8.1510 O.2   135  TYR135     -0.2733
    144  CB       -15.4170   -5.3790   11.1450 C.3   135  TYR135      0.0547
    145  CG       -14.9130   -6.2690   12.2540 C.ar  135  TYR135     -0.0200
    146  CD1      -15.1590   -7.6440   12.2860 C.ar  135  TYR135     -0.0009
    147  CD2      -14.1480   -5.7340   13.2790 C.ar  135  TYR135     -0.0009
    148  CE1      -14.6800   -8.4600   13.3010 C.ar  135  TYR135      0.0417
    149  CE2      -13.6610   -6.5420   14.2970 C.ar  135  TYR135      0.0417
    150  CZ       -13.9220   -7.8980   14.3050 C.ar  135  TYR135      0.1957
    151  OH       -13.4210   -8.6310   15.3590 O.3   135  TYR135     -0.2866
    152  N        -12.6610   -6.5240    9.5360 N.am  136  PRO136     -0.2718
    153  CA       -12.0070   -7.4520    8.6400 C.3   136  PRO136      0.1535
    154  C        -12.7030   -8.7550    8.3810 C.2   136  PRO136      0.2598
    155  O        -12.4060   -9.3110    7.3050 O.2   136  PRO136     -0.2715
    156  CB       -10.6380   -7.6570    9.2810 C.3   136  PRO136      0.0310
    157  CG       -10.9720   -7.5220   10.7340 C.3   136  PRO136      0.0237
    158  CD       -11.8500   -6.2890   10.7550 C.3   136  PRO136      0.0939
    159  N        -13.5980   -9.2270    9.2340 N.am  137  LEU137     -0.1964
    160  CA       -14.2380  -10.5250    9.0150 C.3   137  LEU137      0.1728
    161  C        -15.7410  -10.4710    8.7910 C.2   137  LEU137      0.2616
    162  O        -16.4830   -9.9740    9.6450 O.2   137  LEU137     -0.2715
    163  CB       -13.9670  -11.4380   10.1940 C.3   137  LEU137      0.0311
    164  CG       -12.5760  -11.8560   10.6180 C.3   137  LEU137      0.0022
    165  CD1      -12.6670  -13.1570   11.4360 C.3   137  LEU137      0.0001
    166  CD2      -11.6210  -12.0680    9.4770 C.3   137  LEU137      0.0001
    167  N        -16.2070  -10.9940    7.6650 N.am  138  TYR138     -0.1960
    168  CA       -17.6090  -10.9500    7.2480 C.3   138  TYR138      0.1771
    169  C        -18.5380  -11.5790    8.2610 C.2   138  TYR138      0.2619
    170  O        -18.1760  -12.4610    9.0010 O.2   138  TYR138     -0.2715
    171  CB       -17.8130  -11.5210    5.8350 C.3   138  TYR138      0.0574
    172  CG       -19.2380  -11.6060    5.3560 C.ar  138  TYR138     -0.0198
    173  CD1      -19.9360  -10.4890    4.9600 C.ar  138  TYR138     -0.0009
    174  CD2      -19.9050  -12.8290    5.3200 C.ar  138  TYR138     -0.0009
    175  CE1      -21.2610  -10.5560    4.5590 C.ar  138  TYR138      0.0417
    176  CE2      -21.2190  -12.9450    4.8940 C.ar  138  TYR138      0.0417
    177  CZ       -21.8890  -11.7830    4.5240 C.ar  138  TYR138      0.1957
    178  OH       -23.2010  -11.8650    4.1260 O.3   138  TYR138     -0.2866
    179  N        -19.7480  -11.0770    8.3320 N.am  139  HIS139     -0.1973
    180  CA       -20.8270  -11.3870    9.2530 C.3   139  HIS139      0.1656
    181  C        -22.1470  -11.0510    8.5700 C.2   139  HIS139      0.2291
    182  O        -22.2950   -9.9710    8.0070 O.2   139  HIS139     -0.2864
    183  CB       -20.5950  -10.5240   10.5100 C.3   139  HIS139      0.0771
    184  CG       -21.7730   -9.8590   11.1420 C.ar  139  HIS139      0.0820
    185  ND1      -22.8350  -10.5940   11.6440 N.ar  139  HIS139     -0.2267
    186  CD2      -22.0300   -8.5260   11.3460 C.ar  139  HIS139      0.1154
    187  CE1      -23.7000   -9.7060   12.1270 C.ar  139  HIS139      0.1986
    188  NE2      -23.2550   -8.4530   11.9660 N.ar  139  HIS139     -0.2212
    189  N        -26.3360  -10.4720    8.3410 N.3   141  LEU141     -0.1245
    190  CA       -27.5260   -9.8730    8.8560 C.3   141  LEU141      0.1561
    191  C        -28.8240  -10.5670    8.4920 C.2   141  LEU141      0.2260
    192  O        -29.3410  -10.4510    7.3800 O.2   141  LEU141     -0.2867
    193  CB       -27.5570   -8.4490    8.2650 C.3   141  LEU141      0.0270
    194  CG       -26.8380   -7.3990    9.0990 C.3   141  LEU141      0.0019
    195  CD1      -27.8010   -6.8180   10.1250 C.3   141  LEU141      0.0001
    196  CD2      -25.6240   -7.9700    9.8060 C.3   141  LEU141      0.0001
    197  N        -29.5750   -2.6430    8.6900 N.3   147  PHE147     -0.1241
    198  CA       -28.2320   -2.4820    8.2170 C.3   147  PHE147      0.1605
    199  C        -27.9330   -0.9630    8.2750 C.2   147  PHE147      0.2264
    200  O        -28.6210   -0.1470    7.6390 O.2   147  PHE147     -0.2867
    201  CB       -27.9110   -2.8940    6.7680 C.3   147  PHE147      0.0534
    202  CG       -26.6090   -2.2970    6.2510 C.ar  147  PHE147     -0.0203
    203  CD1      -25.4040   -2.9470    6.4630 C.ar  147  PHE147     -0.0042
    204  CD2      -26.5870   -1.0670    5.6000 C.ar  147  PHE147     -0.0042
    205  CE1      -24.2230   -2.4110    6.0080 C.ar  147  PHE147     -0.0003
    206  CE2      -25.4040   -0.5100    5.1710 C.ar  147  PHE147     -0.0003
    207  CZ       -24.2170   -1.1910    5.3590 C.ar  147  PHE147     -0.0000
@<TRIPOS>BOND
     1    42    41   ar
     2    42    40   ar
     3    51    50    2
     4    41    39   ar
     5    40    38   ar
     6    48    49    1
     7    36    35    2
     8    50    49    1
     9    39    38   ar
    10    38    37    1
    11    49    52    1
    12    44    45    1
    13    44    47    1
    14    44    43    1
    15    45    46    1
    16    35    43   am
    17    35    34    1
    18    52    53    1
    19    23    22    2
    20    53    54    1
    21    33    34    1
    22    33    30   am
    23    32    29    1
    24    29    30    1
    25    29    28    1
    26    37    34    1
    27    93    94    1
    28    93    90    1
    29    30    31    2
    30    56    54   ar
    31    54    55   ar
    32    22    28   am
    33    22    21    1
    34    92    91    2
    35    94    95    1
    36    96    95    2
    37    91    90    1
    38    16    15    2
    39    60    59    2
    40    95    97   am
    41    90    89    1
    42    18    17    1
    43   100   101    2
    44   100    99    1
    45    21    20    1
    46    21    24    1
    47    77    76    1
    48    74    75    2
    49    74    73    1
    50    76    78    1
    51    76    73    1
    52    15    20   am
    53    15    14    1
    54    61    62    1
    55    61    63    1
    56    61    58    1
    57    17    14    1
    58    17    19    1
    59    89    81   am
    60    59    58    1
    61   102    99    1
    62   102   103    1
    63     1     2    1
    64    24    25    1
    65    99    98    1
    66    73    72    1
    67     4     3    2
    68    14    13    1
    69    64    65    1
    70    58    57    1
    71    72    66   am
    72    81    82    2
    73    81    80    1
    74   103   105   ar
    75   103   104   ar
    76    13     7   am
    77    27    25    1
    78   105   107   ar
    79    79    80    1
    80     2     3    1
    81     3     5   am
    82    66    67    2
    83    66    65    1
    84    25    26    1
    85    65    68    1
    86    80    83    1
    87     7     8    2
    88     7     6    1
    89   104   106   ar
    90     9     6    1
    91     9    10    1
    92     5     6    1
    93   107   106   ar
    94    86    84   ar
    95    86    88   ar
    96    68    69    1
    97    83    84    1
    98    69    70    1
    99    69    71    1
   100    84    85   ar
   101    12    10   am
   102    10    11    2
   103    88    87   ar
   104   178   177    1
   105   177   175   ar
   106   177   176   ar
   107   175   173   ar
   108   139   137    1
   109   176   174   ar
   110   173   172   ar
   111    85    87   ar
   112   206   207   ar
   113   206   204   ar
   114   174   172   ar
   115   172   171    1
   116   207   205   ar
   117   117   116   ar
   118   117   115   ar
   119   204   202   ar
   120   137   138    1
   121   137   136    1
   122   171   168    1
   123   116   114   ar
   124   205   203   ar
   125   202   203   ar
   126   202   201    1
   127   115   113   ar
   128   201   198    1
   129   135   134    2
   130   114   113   ar
   131   136   133    1
   132   168   167    1
   133   168   169    1
   134   155   154    2
   135   192   191    2
   136   113   112    1
   137   200   199    2
   138   167   161   am
   139   108   109    1
   140   134   133    1
   141   182   181    2
   142   143   142    2
   143   198   199    1
   144   198   197    1
   145   169   179   am
   146   169   170    2
   147   193   190    1
   148   193   194    1
   149   133   132    1
   150   179   180    1
   151   189   190    1
   152   154   153    1
   153   154   159   am
   154   191   190    1
   155   181   180    1
   156   109   112    1
   157   109   110    1
   158   153   156    1
   159   153   152    1
   160   161   160    1
   161   161   162    2
   162   160   159    1
   163   160   163    1
   164   194   196    1
   165   194   195    1
   166   142   152   am
   167   142   141    1
   168   180   183    1
   169   156   157    1
   170   140   141    1
   171   166   164    1
   172   152   158    1
   173   132   129   am
   174   110   111    2
   175   141   144    1
   176   163   164    1
   177   183   184    1
   178   130   129    2
   179   164   165    1
   180   129   128    1
   181   157   158    1
   182   184   186   ar
   183   184   185   ar
   184   144   145    1
   185   186   188   ar
   186   185   187   ar
   187   188   187   ar
   188   128   131    1
   189   128   127    1
   190   145   146   ar
   191   145   147   ar
   192   146   148   ar
   193   121   120    2
   194   127   120   am
   195   147   149   ar
   196   148   150   ar
   197   120   119    1
   198   149   150   ar
   199   150   151    1
   200   119   118    1
   201   119   122    1
   202   122   123    1
   203   123   124    1
   204   126   124   ar
   205   124   125   ar
