@<TRIPOS>MOLECULE
tmp/1c8uB00.pdb
 132 128 0 0 0
SMALL
GASTEIGER

@<TRIPOS>ATOM
      1  N         14.6640   84.9340   60.8210 N.3    29  GLY29      -0.1210
      2  CA        13.4650   84.3570   60.2290 C.3    29  GLY29       0.1956
      3  C         13.1260   82.9920   60.7760 C.2    29  GLY29       0.2611
      4  O         13.9980   82.1750   61.1190 O.2    29  GLY29      -0.2717
      5  N         11.8470   82.8010   60.8810 N.am   30  LEU30      -0.1979
      6  CA        11.2690   81.6220   61.3910 C.3    30  LEU30       0.1596
      7  C         11.5220   81.4200   62.8240 C.2    30  LEU30       0.2287
      8  O         12.6500   81.5270   63.2720 O.2    30  LEU30      -0.2864
      9  CB        11.6590   80.4930   60.5740 C.3    30  LEU30       0.0297
     10  CG        10.2800   80.1380   60.0820 C.3    30  LEU30       0.0022
     11  CD1        9.8740   81.0380   58.9260 C.3    30  LEU30       0.0001
     12  CD2       10.2140   78.6720   59.6700 C.3    30  LEU30       0.0001
     13  N         17.1410   77.1330   63.3230 N.3    34  PHE34      -0.1227
     14  CA        17.6610   76.5360   62.0970 C.3    34  PHE34       0.1736
     15  C         18.6700   75.4440   62.4690 C.2    34  PHE34       0.2596
     16  O         19.5700   75.6630   63.2910 O.2    34  PHE34      -0.2718
     17  CB        18.3220   77.6080   61.2280 C.3    34  PHE34       0.0547
     18  CG        19.1480   77.0530   60.1030 C.ar   34  PHE34      -0.0202
     19  CD1       18.6210   76.1010   59.2340 C.ar   34  PHE34      -0.0042
     20  CD2       20.4580   77.4860   59.9130 C.ar   34  PHE34      -0.0042
     21  CE1       19.3930   75.5810   58.1880 C.ar   34  PHE34      -0.0003
     22  CE2       21.2400   76.9800   58.8750 C.ar   34  PHE34      -0.0003
     23  CZ        20.7070   76.0240   58.0080 C.ar   34  PHE34      -0.0000
     24  N         18.5070   74.2680   61.8690 N.am   35  GLY35      -0.1957
     25  CA        19.3920   73.1570   62.1620 C.3    35  GLY35       0.1869
     26  C         20.8680   73.4840   62.0130 C.2    35  GLY35       0.2309
     27  O         21.6970   73.0300   62.8050 O.2    35  GLY35      -0.2863
     28  N         10.9610   93.5100   55.0580 N.3   151  PHE151     -0.1241
     29  CA        11.6030   92.3550   54.4610 C.3   151  PHE151      0.1605
     30  C         12.8650   92.8230   53.7300 C.2   151  PHE151      0.2264
     31  O         13.0800   94.0190   53.5370 O.2   151  PHE151     -0.2867
     32  CB        10.6600   91.6810   53.4650 C.3   151  PHE151      0.0534
     33  CG        11.3670   90.9250   52.3900 C.ar  151  PHE151     -0.0203
     34  CD1       11.9740   89.6990   52.6680 C.ar  151  PHE151     -0.0042
     35  CD2       11.4970   91.4630   51.1170 C.ar  151  PHE151     -0.0042
     36  CE1       12.7020   89.0320   51.6860 C.ar  151  PHE151     -0.0003
     37  CE2       12.2330   90.7880   50.1310 C.ar  151  PHE151     -0.0003
     38  CZ        12.8300   89.5760   50.4280 C.ar  151  PHE151     -0.0000
     39  N         10.1610   77.2960   47.5910 N.3   167  PRO167     -0.2102
     40  CA         9.6150   76.5970   48.7560 C.3   167  PRO167      0.1504
     41  C          8.1390   76.8850   49.0120 C.2   167  PRO167      0.2575
     42  O          7.4630   76.1350   49.7230 O.2   167  PRO167     -0.2718
     43  CB        10.5130   77.0790   49.8930 C.3   167  PRO167      0.0282
     44  CG        10.8950   78.4540   49.4560 C.3   167  PRO167      0.0208
     45  CD        11.1850   78.2730   47.9950 C.3   167  PRO167      0.0893
     46  N          7.6420   77.9720   48.4300 N.am  168  LEU168     -0.1980
     47  CA         6.2430   78.3610   48.6030 C.3   168  LEU168      0.1596
     48  C          5.3300   77.6980   47.5800 C.2   168  LEU168      0.2287
     49  O          4.1190   77.6210   47.7850 O.2   168  LEU168     -0.2864
     50  CB         6.0950   79.8860   48.4920 C.3   168  LEU168      0.0297
     51  CG         7.0510   80.7120   49.3540 C.3   168  LEU168      0.0022
     52  CD1        6.8340   82.2020   49.1050 C.3   168  LEU168      0.0001
     53  CD2        6.8340   80.3690   50.8190 C.3   168  LEU168      0.0001
     54  N         23.2780   72.4530   55.8920 N.3   203  ASP203     -0.1225
     55  CA        21.8750   72.1690   56.1760 C.3   203  ASP203      0.1805
     56  C         20.9170   72.9770   55.3070 C.2   203  ASP203      0.2597
     57  O         19.7050   72.9030   55.4890 O.2   203  ASP203     -0.2718
     58  CB        21.5700   72.4050   57.6650 C.3   203  ASP203      0.1424
     59  CG        20.2740   71.7300   58.1160 C.2   203  ASP203      0.3668
     60  OD1       19.9950   70.6070   57.6560 O.co2 203  ASP203     -0.2456
     61  OD2       19.5470   72.3170   58.9460 O.co2 203  ASP203     -0.2456
     62  N         21.4680   73.7440   54.3660 N.am  204  LEU204     -0.1979
     63  CA        20.6610   74.5550   53.4490 C.3   204  LEU204      0.1596
     64  C         20.5520   73.8440   52.1000 C.2   204  LEU204      0.2287
     65  O         21.4760   73.1270   51.7060 O.2   204  LEU204     -0.2864
     66  CB        21.2990   75.9350   53.2560 C.3   204  LEU204      0.0297
     67  CG        21.2940   76.8330   54.4990 C.3   204  LEU204      0.0022
     68  CD1       22.1100   78.0950   54.2400 C.3   204  LEU204      0.0001
     69  CD2       19.8590   77.1870   54.8630 C.3   204  LEU204      0.0001
     70  N         17.6540   68.8050   52.6080 N.3   207  LEU207     -0.1231
     71  CA        16.4700   67.9650   52.7690 C.3   207  LEU207      0.1678
     72  C         15.3560   68.2070   51.7400 C.2   207  LEU207      0.2434
     73  O         14.8120   67.2590   51.1800 O.2   207  LEU207     -0.2733
     74  CB        15.9030   68.1060   54.1910 C.3   207  LEU207      0.0284
     75  CG        14.6750   67.2290   54.4960 C.3   207  LEU207      0.0019
     76  CD1       14.9830   65.7700   54.1680 C.3   207  LEU207      0.0001
     77  CD2       14.2680   67.3830   55.9550 C.3   207  LEU207      0.0001
     78  N         15.0200   69.4790   51.4610 N.am  208  PRO208     -0.2729
     79  CA        13.9600   69.7990   50.4920 C.3   208  PRO208      0.1401
     80  C         14.0670   69.0950   49.1390 C.2   208  PRO208      0.2269
     81  O         13.0750   68.9490   48.4260 O.2   208  PRO208     -0.2865
     82  CB        14.0630   71.3170   50.3560 C.3   208  PRO208      0.0296
     83  CG        14.5050   71.7340   51.7290 C.3   208  PRO208      0.0237
     84  CD        15.5890   70.7130   52.0310 C.3   208  PRO208      0.0939
     85  N          8.7470   73.0270   50.4990 N.3   218  PHE218     -0.1227
     86  CA         8.7490   72.7750   51.9410 C.3   218  PHE218      0.1736
     87  C          8.0790   73.8130   52.8450 C.2   218  PHE218      0.2595
     88  O          7.9550   73.6020   54.0540 O.2   218  PHE218     -0.2718
     89  CB        10.1730   72.4860   52.4400 C.3   218  PHE218      0.0547
     90  CG        11.0250   73.7070   52.6590 C.ar  218  PHE218     -0.0202
     91  CD1       11.7240   74.2880   51.6090 C.ar  218  PHE218     -0.0042
     92  CD2       11.1650   74.2420   53.9340 C.ar  218  PHE218     -0.0042
     93  CE1       12.5520   75.3810   51.8270 C.ar  218  PHE218     -0.0003
     94  CE2       11.9930   75.3430   54.1660 C.ar  218  PHE218     -0.0003
     95  CZ        12.6890   75.9120   53.1120 C.ar  218  PHE218     -0.0000
     96  N          7.6320   74.9250   52.2770 N.am  219  LEU219     -0.1980
     97  CA         6.9600   75.9370   53.0800 C.3   219  LEU219      0.1596
     98  C          5.4600   75.9770   52.8130 C.2   219  LEU219      0.2287
     99  O          4.7270   76.7270   53.4630 O.2   219  LEU219     -0.2864
    100  CB         7.5740   77.3130   52.8340 C.3   219  LEU219      0.0297
    101  CG         8.9090   77.4960   53.5500 C.3   219  LEU219      0.0022
    102  CD1        9.4350   78.9130   53.3230 C.3   219  LEU219      0.0001
    103  CD2        8.7170   77.2250   55.0330 C.3   219  LEU219      0.0001
    104  N          8.3680   69.0970   56.9910 N.3   225  ILE225     -0.1231
    105  CA         9.6200   68.3760   56.8950 C.3   225  ILE225      0.1692
    106  C         10.4430   68.8060   58.0960 C.2   225  ILE225      0.2592
    107  O         10.3680   69.9520   58.5370 O.2   225  ILE225     -0.2718
    108  CB        10.4040   68.6710   55.5790 C.3   225  ILE225      0.0266
    109  CG1       11.0030   70.0780   55.5960 C.3   225  ILE225      0.0019
    110  CG2        9.4850   68.4900   54.3760 C.3   225  ILE225      0.0020
    111  CD1       11.9390   70.3420   54.4090 C.3   225  ILE225      0.0001
    112  N         11.2110   67.8710   58.6370 N.am  226  ALA226     -0.1966
    113  CA        12.0450   68.1570   59.7860 C.3   226  ALA226      0.1728
    114  C         13.1950   67.1700   59.7930 C.2   226  ALA226      0.2616
    115  O         13.0010   65.9720   59.5910 O.2   226  ALA226     -0.2715
    116  CB        11.2340   68.0330   61.0710 C.3   226  ALA226      0.0334
    117  N         14.3930   67.6910   60.0180 N.am  227  THR227     -0.1951
    118  CA        15.5930   66.8770   60.0570 C.3   227  THR227      0.1897
    119  C         15.5670   65.8810   61.2140 C.2   227  THR227      0.2313
    120  O         15.1480   66.2150   62.3200 O.2   227  THR227     -0.2863
    121  CB        16.8280   67.7610   60.2350 C.3   227  THR227      0.1794
    122  OG1       16.9100   68.6820   59.1450 O.3   227  THR227     -0.2208
    123  CG2       18.0970   66.9070   60.3080 C.3   227  THR227      0.0378
    124  N         21.5800   63.0760   55.1640 N.3   277  GLN277     -0.1245
    125  CA        20.5380   63.4470   56.1000 C.3   277  GLN277      0.1566
    126  C         19.2090   62.8210   55.7460 C.2   277  GLN277      0.2260
    127  O         18.8650   62.6860   54.5730 O.2   277  GLN277     -0.2867
    128  CB        20.3680   64.9730   56.1370 C.3   277  GLN277      0.0367
    129  CG        19.1630   65.4480   56.9490 C.3   277  GLN277      0.0905
    130  CD        19.0430   66.9720   57.0230 C.2   277  GLN277      0.2608
    131  OE1       17.8270   67.4760   56.8670 O.2   277  GLN277     -0.2717
    132  NE2       20.0340   67.6810   57.2350 N.am  277  GLN277     -0.0878
@<TRIPOS>BOND
     1    48    49    2
     2    48    47    1
     3    39    45    1
     4    39    40    1
     5    45    44    1
     6    81    80    2
     7    46    47    1
     8    46    41   am
     9    50    47    1
    10    50    51    1
    11    40    41    1
    12    40    43    1
    13    41    42    2
    14    52    51    1
    15    80    79    1
    16    51    53    1
    17    44    43    1
    18    37    38   ar
    19    37    35   ar
    20    82    79    1
    21    82    83    1
    22    38    36   ar
    23    79    78    1
    24    85    86    1
    25    35    33   ar
    26    73    72    2
    27    78    72   am
    28    78    84    1
    29    91    93   ar
    30    91    90   ar
    31    36    34   ar
    32    65    64    2
    33    83    84    1
    34    72    71    1
    35    93    95   ar
    36    86    89    1
    37    86    87    1
    38    64    63    1
    39    96    87   am
    40    96    97    1
    41    33    34   ar
    42    33    32    1
    43    89    90    1
    44    70    71    1
    45    90    92   ar
    46    71    74    1
    47    98    97    1
    48    98    99    2
    49   100    97    1
    50   100   101    1
    51    87    88    2
    52    95    94   ar
    53    66    63    1
    54    66    67    1
    55   102   101    1
    56    63    62    1
    57    32    29    1
    58    31    30    2
    59   101   103    1
    60    30    29    1
    61    92    94   ar
    62    76    75    1
    63    74    75    1
    64    68    67    1
    65    62    56   am
    66   110   108    1
    67   111   109    1
    68    29    28    1
    69    75    77    1
    70    67    69    1
    71   127   126    2
    72   124   125    1
    73    56    57    2
    74    56    55    1
    75   108   109    1
    76   108   105    1
    77   126   125    1
    78    54    55    1
    79   125   128    1
    80   128   129    1
    81    55    58    1
    82   131   130    2
    83   105   104    1
    84   105   106    1
    85   129   130    1
    86   130   132   am
    87    60    59   ar
    88    58    59    1
    89    23    21   ar
    90    23    22   ar
    91   106   107    2
    92   106   112   am
    93    59    61   ar
    94    21    19   ar
    95   112   113    1
    96    22    20   ar
    97    11    10    1
    98   122   121    1
    99    19    18   ar
   100   115   114    2
   101    12    10    1
   102   113   114    1
   103   113   116    1
   104   114   117   am
   105    20    18   ar
   106   117   118    1
   107   118   121    1
   108   118   119    1
   109    10     9    1
   110    18    17    1
   111     2     3    1
   112     2     1    1
   113   121   123    1
   114     9     6    1
   115     3     5   am
   116     3     4    2
   117     5     6    1
   118   119   120    2
   119    17    14    1
   120     6     7    1
   121    24    25    1
   122    24    15   am
   123    26    25    1
   124    26    27    2
   125    14    15    1
   126    14    13    1
   127    15    16    2
   128     7     8    2
