@<TRIPOS>MOLECULE
tmp/1c97A00.pdb
 126 118 0 0 0
SMALL
GASTEIGER

@<TRIPOS>ATOM
      1  N         55.4090   72.3370   71.5500 N.3    71  GLN71      -0.1245
      2  CA        54.5250   72.1190   70.4280 C.3    71  GLN71       0.1566
      3  C         53.5110   71.0180   70.7860 C.2    71  GLN71       0.2260
      4  O         53.6800   70.3740   71.8370 O.2    71  GLN71      -0.2867
      5  CB        55.4060   71.8260   69.2630 C.3    71  GLN71       0.0367
      6  CG        56.6340   70.9550   69.3620 C.3    71  GLN71       0.0905
      7  CD        56.3840   69.4820   69.2330 C.2    71  GLN71       0.2608
      8  OE1       55.2540   68.9980   69.2460 O.2    71  GLN71      -0.2717
      9  NE2       57.4660   68.7410   69.1190 N.am   71  GLN71      -0.0878
     10  N         52.8140   67.9100   69.8830 N.3    73  ALA73      -0.1231
     11  CA        53.2070   66.5220   70.1160 C.3    73  ALA73       0.1694
     12  C         53.9320   66.3100   71.4220 C.2    73  ALA73       0.2592
     13  O         53.8840   65.2260   71.9630 O.2    73  ALA73      -0.2718
     14  CB        54.0760   66.0020   68.9530 C.3    73  ALA73       0.0304
     15  N         54.6110   67.3090   71.9660 N.am   74  THR74      -0.1953
     16  CA        55.2850   67.1760   73.2500 C.3    74  THR74       0.1897
     17  C         54.5880   67.9870   74.3290 C.2    74  THR74       0.2313
     18  O         54.9440   67.8000   75.4720 O.2    74  THR74      -0.2863
     19  CB        56.7610   67.6200   73.1980 C.3    74  THR74       0.1794
     20  OG1       56.7650   68.9880   72.7650 O.3    74  THR74      -0.2208
     21  CG2       57.5880   66.6770   72.3530 C.3    74  THR74       0.0378
     22  N         52.2560   69.8280   64.9010 N.3   100  HIS100     -0.1241
     23  CA        52.6550   68.4670   64.7260 C.3   100  HIS100      0.1621
     24  C         51.6670   67.3990   64.4080 C.2   100  HIS100      0.2264
     25  O         52.0770   66.2750   64.1750 O.2   100  HIS100     -0.2867
     26  CB        53.3970   68.0090   65.9340 C.3   100  HIS100      0.0745
     27  CG        54.8630   68.3220   65.8900 C.ar  100  HIS100      0.0817
     28  ND1       55.5010   69.4770   66.0670 N.ar  100  HIS100     -0.2268
     29  CD2       55.8100   67.3920   65.5750 C.ar  100  HIS100      0.1154
     30  CE1       56.7990   69.3070   65.8940 C.ar  100  HIS100      0.1986
     31  NE2       56.9530   68.0440   65.5930 N.ar  100  HIS100     -0.2212
     32  N         61.4000   70.6340   72.0250 N.3   164  ASP164     -0.1225
     33  CA        61.6670   70.3030   70.6500 C.3   164  ASP164      0.1805
     34  C         63.1400   70.4060   70.4770 C.2   164  ASP164      0.2598
     35  O         63.7220   71.3490   70.9620 O.2   164  ASP164     -0.2718
     36  CB        61.0480   71.2920   69.6900 C.3   164  ASP164      0.1424
     37  CG        60.9000   70.8200   68.2350 C.2   164  ASP164      0.3668
     38  OD1       59.8260   70.3400   67.8790 O.co2 164  ASP164     -0.2456
     39  OD2       61.8750   70.9080   67.4530 O.co2 164  ASP164     -0.2456
     40  N         63.7870   69.4990   69.7630 N.am  165  SER165     -0.1938
     41  CA        65.2250   69.5700   69.5540 C.3   165  SER165      0.2055
     42  C         65.6830   70.6380   68.5450 C.2   165  SER165      0.2643
     43  O         66.8700   70.9740   68.5330 O.2   165  SER165     -0.2714
     44  CB        65.7120   68.2070   69.1300 C.3   165  SER165      0.2130
     45  OG        65.2070   67.8640   67.8590 O.3   165  SER165     -0.2179
     46  N         64.7660   71.2060   67.7400 N.am  166  HIS166     -0.1973
     47  CA        65.0860   72.3140   66.8730 C.3   166  HIS166      0.1656
     48  C         64.7440   73.7090   67.3790 C.2   166  HIS166      0.2291
     49  O         64.7860   74.6890   66.6200 O.2   166  HIS166     -0.2864
     50  CB        64.4590   72.0820   65.4770 C.3   166  HIS166      0.0771
     51  CG        65.0600   70.8820   64.8050 C.ar  166  HIS166      0.0820
     52  ND1       64.5390   69.7320   64.4530 N.ar  166  HIS166     -0.2267
     53  CD2       66.3590   70.8040   64.4220 C.ar  166  HIS166      0.1154
     54  CE1       65.4360   68.9530   63.9310 C.ar  166  HIS166      0.1986
     55  NE2       66.5530   69.6080   63.9280 N.ar  166  HIS166     -0.2212
     56  N         57.7960   65.2110   60.0920 N.3   424  ILE424     -0.1245
     57  CA        57.7450   64.1640   61.1150 C.3   424  ILE424      0.1561
     58  C         56.9070   62.9540   60.6580 C.2   424  ILE424      0.2260
     59  O         56.3740   62.2140   61.5110 O.2   424  ILE424     -0.2867
     60  CB        57.1300   64.6160   62.5130 C.3   424  ILE424      0.0252
     61  CG1       56.5490   65.9790   62.4020 C.3   424  ILE424      0.0019
     62  CG2       58.1640   64.4330   63.6200 C.3   424  ILE424      0.0019
     63  CD1       55.0300   65.8340   62.5500 C.3   424  ILE424      0.0001
     64  N         66.6710   66.5800   59.1200 N.3   446  ARG446     -0.1245
     65  CA        67.0140   65.2290   59.4800 C.3   446  ARG446      0.1563
     66  C         66.5830   64.3040   58.3610 C.2   446  ARG446      0.2260
     67  O         65.6400   64.6280   57.6540 O.2   446  ARG446     -0.2867
     68  CB        66.3110   65.0240   60.8410 C.3   446  ARG446      0.0307
     69  CG        66.6670   63.8990   61.7720 C.3   446  ARG446      0.0489
     70  CD        65.8310   64.2330   63.0050 C.3   446  ARG446      0.2205
     71  NE        66.5420   65.1120   63.9400 N.pl3 446  ARG446     -0.0865
     72  CZ        65.9560   65.6590   65.0350 C.cat 446  ARG446      0.5346
     73  NH1       66.7250   66.3900   65.8500 N.pl3 446  ARG446      0.1354
     74  NH2       64.6490   65.5480   65.2970 N.pl3 446  ARG446      0.1354
     75  N         61.8040   58.3220   57.7260 N.3   451  ARG451     -0.1245
     76  CA        60.9090   58.8730   58.7960 C.3   451  ARG451      0.1563
     77  C         59.8630   59.9540   58.3940 C.2   451  ARG451      0.2260
     78  O         59.1440   60.5100   59.2390 O.2   451  ARG451     -0.2867
     79  CB        61.7190   59.4980   59.9680 C.3   451  ARG451      0.0307
     80  CG        62.2950   60.9550   59.7620 C.3   451  ARG451      0.0489
     81  CD        62.5480   61.7990   61.0410 C.3   451  ARG451      0.2205
     82  NE        62.2780   63.2210   60.8330 N.pl3 451  ARG451     -0.0865
     83  CZ        62.2110   64.1360   61.8260 C.cat 451  ARG451      0.5346
     84  NH1       61.8800   65.4130   61.5510 N.pl3 451  ARG451      0.1354
     85  NH2       62.4740   63.8220   63.0880 N.pl3 451  ARG451      0.1354
     86  N         52.2040   59.6250   66.6820 N.3   576  LEU576     -0.1301
     87  CA        51.9240   60.9370   67.2540 C.3   576  LEU576      0.1247
     88  C         50.5240   61.0130   67.8020 C.3   576  LEU576      0.2009
     89  O         50.4120   61.6910   68.8340 O.3   576  LEU576     -0.2188
     90  CB        52.1530   62.0140   66.1850 C.3   576  LEU576      0.0217
     91  CG        53.6400   62.0600   65.7390 C.3   576  LEU576      0.0015
     92  CD1       53.9110   62.9330   64.5030 C.3   576  LEU576      0.0000
     93  CD2       54.3980   62.6960   66.8590 C.3   576  LEU576      0.0000
     94  N         50.6540   60.5620   71.6230 N.3   579  ARG579     -0.1301
     95  CA        51.6430   61.2340   72.4350 C.3   579  ARG579      0.1248
     96  C         51.0510   61.6210   73.7470 C.3   579  ARG579      0.2009
     97  O         51.8730   62.0000   74.5590 O.3   579  ARG579     -0.2188
     98  CB        52.1380   62.4550   71.7300 C.3   579  ARG579      0.0254
     99  CG        53.1450   62.0400   70.6420 C.3   579  ARG579      0.0485
    100  CD        54.4570   61.7880   71.2790 C.3   579  ARG579      0.2205
    101  NE        55.5120   61.3830   70.4040 N.pl3 579  ARG579     -0.0865
    102  CZ        56.3890   62.2750   69.9500 C.cat 579  ARG579      0.5346
    103  NH1       57.3650   61.8910   69.1310 N.pl3 579  ARG579      0.1354
    104  NH2       56.2950   63.5740   70.2440 N.pl3 579  ARG579      0.1354
    105  N         65.6270   63.7330   67.9300 N.3   641  ALA641     -0.1231
    106  CA        64.4590   64.3290   68.5450 C.3   641  ALA641      0.1694
    107  C         64.3910   64.2990   70.0750 C.2   641  ALA641      0.2593
    108  O         64.7750   63.3500   70.7570 O.2   641  ALA641     -0.2718
    109  CB        63.2690   63.6230   67.9440 C.3   641  ALA641      0.0304
    110  N         63.6560   65.3390   70.5510 N.am  642  SER642     -0.1938
    111  CA        63.5340   65.6200   71.9360 C.3   642  SER642      0.2055
    112  C         62.6050   64.6720   72.7560 C.2   642  SER642      0.2642
    113  O         62.7540   64.5680   73.9870 O.2   642  SER642     -0.2714
    114  CB        62.8950   67.0150   72.2370 C.3   642  SER642      0.2130
    115  OG        64.0260   67.5450   72.9130 O.3   642  SER642     -0.2179
    116  N         61.5920   64.1080   72.1250 N.am  643  ARG643     -0.1977
    117  CA        60.5510   63.3820   72.8690 C.3   643  ARG643      0.1597
    118  C         60.9180   62.5740   74.1160 C.2   643  ARG643      0.2287
    119  O         61.7130   61.6430   74.1120 O.2   643  ARG643     -0.2864
    120  CB        59.9360   62.3990   71.7900 C.3   643  ARG643      0.0334
    121  CG        60.9320   61.3610   71.2510 C.3   643  ARG643      0.0492
    122  CD        60.3150   60.7390   70.0360 C.3   643  ARG643      0.2205
    123  NE        60.3400   61.6380   68.9140 N.pl3 643  ARG643     -0.0865
    124  CZ        60.5310   61.1820   67.6590 C.cat 643  ARG643      0.5346
    125  NH1       60.5660   62.0110   66.6440 N.pl3 643  ARG643      0.1354
    126  NH2       60.6710   59.9060   67.3390 N.pl3 643  ARG643      0.1354
@<TRIPOS>BOND
     1    67    66    2
     2    75    76    1
     3    66    65    1
     4    77    76    1
     5    77    78    2
     6    76    79    1
     7    64    65    1
     8    65    68    1
     9    80    79    1
    10    80    81    1
    11    56    57    1
    12    58    57    1
    13    58    59    2
    14    82    81    1
    15    82    83    2
    16    68    69    1
    17    57    60    1
    18    84    83    1
    19    69    70    1
    20    83    85    1
    21    61    60    1
    22    61    63    1
    23    60    62    1
    24    70    71    1
    25    55    54   ar
    26    55    53   ar
    27    54    52   ar
    28    71    72    2
    29    25    24    2
    30    24    23    1
    31    53    51   ar
    32    52    51   ar
    33    92    91    1
    34    23    22    1
    35    23    26    1
    36    51    50    1
    37    72    74    1
    38    72    73    1
    39    50    47    1
    40    29    31   ar
    41    29    27   ar
    42    31    30   ar
    43    91    90    1
    44    91    93    1
    45    27    26    1
    46    27    28   ar
    47    30    28   ar
    48    90    87    1
    49    49    48    2
    50   125   124    1
    51    86    87    1
    52    47    48    1
    53    47    46    1
    54    87    88    1
    55   126   124    1
    56    39    37   ar
    57   124   123    2
    58    46    42   am
    59    88    89    1
    60    45    44    1
    61    38    37   ar
    62   105   106    1
    63   109   106    1
    64    37    36    1
    65    43    42    2
    66   106   107    1
    67    42    41    1
    68   123   122    1
    69    14    11    1
    70     9     7   am
    71    44    41    1
    72   103   102    1
    73     7     8    2
    74     7     6    1
    75     5     6    1
    76     5     2    1
    77    41    40    1
    78    36    33    1
    79    40    34   am
    80    10    11    1
    81   102   104    1
    82   102   101    2
    83   122   121    1
    84   107   110   am
    85   107   108    2
    86    11    12    1
    87   101   100    1
    88     2     3    1
    89     2     1    1
    90    34    33    1
    91    34    35    2
    92   110   111    1
    93    99   100    1
    94    99    98    1
    95    33    32    1
    96     3     4    2
    97   121   120    1
    98    12    13    2
    99    12    15   am
   100    94    95    1
   101    98    95    1
   102   120   117    1
   103   111   114    1
   104   111   112    1
   105    15    16    1
   106   116   112   am
   107   116   117    1
   108   114   115    1
   109    21    19    1
   110    95    96    1
   111   112   113    2
   112    20    19    1
   113   117   118    1
   114    19    16    1
   115    16    17    1
   116    96    97    1
   117   119   118    2
   118    17    18    2
