@<TRIPOS>MOLECULE
tmp/1c9cA00.pdb
 189 179 0 0 0
SMALL
GASTEIGER

@<TRIPOS>ATOM
      1  N         28.4530   18.3000  -10.3850 N.3    13  ILE13      -0.1245
      2  CA        27.0280   18.2070  -10.6950 C.3    13  ILE13       0.1561
      3  C         26.1650   18.5630   -9.4740 C.2    13  ILE13       0.2260
      4  O         25.2930   19.4300   -9.5440 O.2    13  ILE13      -0.2867
      5  CB        26.6650   16.7760  -11.2030 C.3    13  ILE13       0.0252
      6  CG1       27.5760   16.3840  -12.3770 C.3    13  ILE13       0.0019
      7  CG2       25.1980   16.7160  -11.6250 C.3    13  ILE13       0.0019
      8  CD1       27.4160   14.9450  -12.8590 C.3    13  ILE13       0.0001
      9  N         20.3460   18.5970  -14.0570 N.3    33  ILE33      -0.1231
     10  CA        19.7030   17.6060  -13.1920 C.3    33  ILE33       0.1692
     11  C         20.1910   16.1500  -13.2020 C.2    33  ILE33       0.2593
     12  O         20.4260   15.5650  -12.1480 O.2    33  ILE33      -0.2718
     13  CB        18.1830   17.6400  -13.3870 C.3    33  ILE33       0.0266
     14  CG1       17.8510   17.7570  -14.8760 C.3    33  ILE33       0.0019
     15  CG2       17.6060   18.8010  -12.6180 C.3    33  ILE33       0.0020
     16  CD1       16.3950   17.7590  -15.1870 C.3    33  ILE33       0.0001
     17  N         20.3160   15.5470  -14.3720 N.am   34  GLY34      -0.1942
     18  CA        20.7650   14.1630  -14.4020 C.3    34  GLY34       0.2014
     19  C         19.6810   13.1610  -14.0330 C.2    34  GLY34       0.2638
     20  O         19.9400   11.9810  -13.8200 O.2    34  GLY34      -0.2714
     21  N         18.4420   13.6230  -13.9930 N.am   35  VAL35      -0.1977
     22  CA        17.3160   12.7620  -13.6670 C.3    35  VAL35       0.1596
     23  C         16.2510   13.0500  -14.7260 C.2    35  VAL35       0.2287
     24  O         16.2710   14.1160  -15.3400 O.2    35  VAL35      -0.2864
     25  CB        16.8220   13.0710  -12.2280 C.3    35  VAL35       0.0276
     26  CG1       15.3330   13.3160  -12.1770 C.3    35  VAL35       0.0022
     27  CG2       17.2150   11.9550  -11.3020 C.3    35  VAL35       0.0022
     28  N         22.0900    0.1220   -6.3980 N.3   102  GLY102     -0.1210
     29  CA        22.2020    0.9900   -7.5560 C.3   102  GLY102      0.1956
     30  C         23.3580    0.5860   -8.4440 C.2   102  GLY102      0.2612
     31  O         24.0450   -0.3890   -8.1660 O.2   102  GLY102     -0.2717
     32  N         23.5420    1.3130   -9.5370 N.am  103  GLY103     -0.1942
     33  CA        24.6250    1.0350  -10.4610 C.3   103  GLY103      0.2014
     34  C         25.9590    1.4130   -9.8450 C.2   103  GLY103      0.2639
     35  O         26.9320    0.6870   -9.9940 O.2   103  GLY103     -0.2714
     36  N         26.0090    2.5420   -9.1450 N.am  104  THR104     -0.1950
     37  CA        27.2350    2.9720   -8.4870 C.3   104  THR104      0.1897
     38  C         27.7140    1.8950   -7.5070 C.2   104  THR104      0.2313
     39  O         28.9050    1.6300   -7.4000 O.2   104  THR104     -0.2863
     40  CB        27.0340    4.2790   -7.7060 C.3   104  THR104      0.1794
     41  OG1       26.4040    5.2510   -8.5540 O.3   104  THR104     -0.2208
     42  CG2       28.3790    4.8310   -7.2460 C.3   104  THR104      0.0378
     43  N         29.4050   -0.9330   -9.3940 N.3   107  LEU107     -0.1245
     44  CA        30.7480   -0.5820   -9.8440 C.3   107  LEU107      0.1561
     45  C         31.7310   -0.6920   -8.6780 C.2   107  LEU107      0.2260
     46  O         32.8420   -1.1790   -8.8460 O.2   107  LEU107     -0.2867
     47  CB        30.7680    0.8300  -10.4290 C.3   107  LEU107      0.0270
     48  CG        30.0820    1.0940  -11.7750 C.3   107  LEU107      0.0019
     49  CD1       30.0120    2.5860  -12.0130 C.3   107  LEU107      0.0001
     50  CD2       30.8430    0.3960  -12.9080 C.3   107  LEU107      0.0001
     51  N         31.3280   10.0110  -16.8080 N.3   130  TRP130     -0.1241
     52  CA        30.6320   10.4110  -15.5970 C.3   130  TRP130      0.1605
     53  C         31.7760   10.5730  -14.5880 C.2   130  TRP130      0.2264
     54  O         32.5640    9.6440  -14.3700 O.2   130  TRP130     -0.2867
     55  CB        29.6680    9.2920  -15.1810 C.3   130  TRP130      0.0550
     56  CG        28.9040    9.5420  -13.9310 C.ar  130  TRP130      0.0003
     57  CD1       28.2770   10.6900  -13.5610 C.ar  130  TRP130      0.0946
     58  CD2       28.6460    8.5890  -12.9010 C.ar  130  TRP130      0.0152
     59  NE1       27.6350   10.5140  -12.3650 N.ar  130  TRP130     -0.2442
     60  CE2       27.8420    9.2300  -11.9380 C.ar  130  TRP130      0.0810
     61  CE3       29.0060    7.2530  -12.6990 C.ar  130  TRP130      0.0012
     62  CZ2       27.3900    8.5770  -10.7930 C.ar  130  TRP130      0.0191
     63  CZ3       28.5560    6.6010  -11.5600 C.ar  130  TRP130      0.0001
     64  CH2       27.7550    7.2670  -10.6240 C.ar  130  TRP130      0.0015
     65  N         33.0180    7.9020  -11.9100 N.3   133  HIS133     -0.1241
     66  CA        33.6930    6.6800  -12.3160 C.3   133  HIS133      0.1621
     67  C         35.1050    6.6160  -11.7290 C.2   133  HIS133      0.2264
     68  O         35.5160    5.6040  -11.1700 O.2   133  HIS133     -0.2867
     69  CB        33.7860    6.6230  -13.8330 C.3   133  HIS133      0.0745
     70  CG        32.6290    5.9340  -14.4770 C.ar  133  HIS133      0.0817
     71  ND1       32.1850    6.2450  -15.7450 N.ar  133  HIS133     -0.2268
     72  CD2       31.8510    4.9160  -14.0420 C.ar  133  HIS133      0.1154
     73  CE1       31.1890    5.4400  -16.0650 C.ar  133  HIS133      0.1986
     74  NE2       30.9680    4.6250  -15.0490 N.ar  133  HIS133     -0.2212
     75  N         30.4430    2.3280  -21.8530 N.3   178  HIS178     -0.1241
     76  CA        29.0880    2.7080  -21.5050 C.3   178  HIS178      0.1621
     77  C         28.2310    1.8790  -22.4710 C.2   178  HIS178      0.2264
     78  O         28.4650    1.9180  -23.6730 O.2   178  HIS178     -0.2867
     79  CB        28.8710    4.1950  -21.7660 C.3   178  HIS178      0.0745
     80  CG        29.6170    5.0960  -20.8360 C.ar  178  HIS178      0.0817
     81  ND1       29.1480    6.3420  -20.4860 N.ar  178  HIS178     -0.2268
     82  CD2       30.8140    4.9610  -20.2140 C.ar  178  HIS178      0.1154
     83  CE1       30.0200    6.9420  -19.6970 C.ar  178  HIS178      0.1986
     84  NE2       31.0420    6.1250  -19.5170 N.ar  178  HIS178     -0.2212
     85  N         23.6990    5.3220  -24.5320 N.3   181  CYS181     -0.1235
     86  CA        23.4760    6.6560  -23.9620 C.3   181  CYS181      0.1677
     87  C         24.6620    7.1630  -23.1610 C.2   181  CYS181      0.2270
     88  O         24.5310    7.5130  -21.9870 O.2   181  CYS181     -0.2867
     89  CB        22.2290    6.6690  -23.0800 C.3   181  CYS181      0.0956
     90  SG        20.7880    6.1310  -23.9550 S.3   181  CYS181     -0.0801
     91  N         27.3360    9.0120  -21.2190 N.3   183  ASN183     -0.1240
     92  CA        27.3020   10.1760  -20.3400 C.3   183  ASN183      0.1653
     93  C         28.7370   10.7330  -20.3120 C.2   183  ASN183      0.2266
     94  O         29.6820   10.0050  -19.9740 O.2   183  ASN183     -0.2867
     95  CB        26.8640    9.7260  -18.9440 C.3   183  ASN183      0.1155
     96  CG        26.8300   10.8500  -17.9450 C.2   183  ASN183      0.2627
     97  OD1       27.1250   11.9940  -18.2680 O.2   183  ASN183     -0.2716
     98  ND2       26.4970   10.5220  -16.7060 N.am  183  ASN183     -0.0877
     99  N         29.2350   -0.4790  -18.1520 N.3   211  ASP211     -0.1239
    100  CA        28.4200    0.2860  -17.2450 C.3   211  ASP211      0.1674
    101  C         27.1520    0.4950  -18.0820 C.2   211  ASP211      0.2266
    102  O         27.1580    1.2240  -19.0820 O.2   211  ASP211     -0.2867
    103  CB        29.0790    1.6100  -16.8910 C.3   211  ASP211      0.1410
    104  CG        28.2450    2.4270  -15.9370 C.2   211  ASP211      0.3668
    105  OD1       27.2320    1.9150  -15.4410 O.co2 211  ASP211     -0.2456
    106  OD2       28.5790    3.5890  -15.6810 O.co2 211  ASP211     -0.2456
    107  N         23.6370    1.8530  -17.5780 N.3   213  ALA213     -0.1231
    108  CA        22.6930    2.5930  -16.7410 C.3   213  ALA213      0.1694
    109  C         21.4330    3.1510  -17.4160 C.2   213  ALA213      0.2592
    110  O         20.5470    3.6550  -16.7240 O.2   213  ALA213     -0.2718
    111  CB        23.4260    3.7290  -16.0240 C.3   213  ALA213      0.0304
    112  N         21.3590    3.0900  -18.7470 N.am  214  TYR214     -0.1976
    113  CA        20.2180    3.6450  -19.4830 C.3   214  TYR214      0.1639
    114  C         19.5640    2.6950  -20.5030 C.2   214  TYR214      0.2290
    115  O         19.0800    3.1330  -21.5530 O.2   214  TYR214     -0.2864
    116  CB        20.6550    4.9250  -20.2080 C.3   214  TYR214      0.0560
    117  CG        21.2680    5.9720  -19.3090 C.ar  214  TYR214     -0.0198
    118  CD1       20.4670    6.9090  -18.6710 C.ar  214  TYR214     -0.0009
    119  CD2       22.6460    5.9930  -19.0570 C.ar  214  TYR214     -0.0009
    120  CE1       21.0090    7.8400  -17.8060 C.ar  214  TYR214      0.0417
    121  CE2       23.2000    6.9240  -18.1900 C.ar  214  TYR214      0.0417
    122  CZ        22.3720    7.8430  -17.5590 C.ar  214  TYR214      0.1957
    123  OH        22.8880    8.7500  -16.6610 O.3   214  TYR214     -0.2866
    124  N         21.9450   -0.4730  -13.7960 N.3   243  SER243     -0.1217
    125  CA        21.1240    0.3240  -12.9070 C.3   243  SER243      0.1889
    126  C         19.6790    0.3540  -13.4110 C.2   243  SER243      0.2288
    127  O         19.4470    0.3360  -14.6220 O.2   243  SER243     -0.2866
    128  CB        21.6830    1.7440  -12.8720 C.3   243  SER243      0.2089
    129  OG        20.8220    2.6410  -12.1980 O.3   243  SER243     -0.2183
    130  N         17.6440    2.6960  -11.9950 N.3   245  SER245     -0.1202
    131  CA        17.2690    4.0050  -11.5040 C.3   245  SER245      0.2020
    132  C         16.4700    4.8250  -12.5100 C.2   245  SER245      0.2618
    133  O         15.4390    5.4080  -12.1630 O.2   245  SER245     -0.2717
    134  CB        18.5220    4.7780  -11.0990 C.3   245  SER245      0.2103
    135  OG        19.2150    4.0830  -10.0850 O.3   245  SER245     -0.2182
    136  N         16.9550    4.8780  -13.7500 N.am  246  LYS246     -0.1979
    137  CA        16.3070    5.6410  -14.8140 C.3   246  LYS246      0.1596
    138  C         15.1550    4.9280  -15.4970 C.2   246  LYS246      0.2287
    139  O         14.0480    5.4590  -15.5520 O.2   246  LYS246     -0.2864
    140  CB        17.3190    6.0760  -15.8790 C.3   246  LYS246      0.0298
    141  CG        18.0420    7.3770  -15.5870 C.3   246  LYS246      0.0038
    142  CD        19.0700    7.2390  -14.4540 C.3   246  LYS246      0.0206
    143  CE        20.1400    6.1870  -14.7540 C.3   246  LYS246      0.1093
    144  NZ        21.1390    6.0350  -13.6490 N.3   246  LYS246     -0.1314
    145  N         15.1680    5.7760   -8.6550 N.3   251  TYR251     -0.1241
    146  CA        16.3630    6.4660   -8.1780 C.3   251  TYR251      0.1605
    147  C         16.8040    6.2380   -6.7350 C.2   251  TYR251      0.2264
    148  O         17.9080    5.7330   -6.4830 O.2   251  TYR251     -0.2867
    149  CB        16.2230    7.9650   -8.4150 C.3   251  TYR251      0.0534
    150  CG        15.8620    8.3340   -9.8310 C.ar  251  TYR251     -0.0201
    151  CD1       16.8370    8.3990  -10.8230 C.ar  251  TYR251     -0.0009
    152  CD2       14.5380    8.6030  -10.1870 C.ar  251  TYR251     -0.0009
    153  CE1       16.5100    8.7350  -12.1380 C.ar  251  TYR251      0.0417
    154  CE2       14.2000    8.9360  -11.4970 C.ar  251  TYR251      0.0417
    155  CZ        15.1860    9.0000  -12.4680 C.ar  251  TYR251      0.1957
    156  OH        14.8410    9.3790  -13.7490 O.3   251  TYR251     -0.2866
    157  N         17.8280    2.5440   -4.7230 N.3   254  ARG254     -0.1245
    158  CA        19.1310    1.9410   -4.9900 C.3   254  ARG254      0.1563
    159  C         19.0460    0.5370   -5.5320 C.2   254  ARG254      0.2260
    160  O         19.4670   -0.4130   -4.8890 O.2   254  ARG254     -0.2867
    161  CB        19.9790    1.9660   -3.7120 C.3   254  ARG254      0.0307
    162  CG        19.9640    3.3140   -3.0080 C.3   254  ARG254      0.0489
    163  CD        20.1770    4.4720   -3.9790 C.3   254  ARG254      0.2205
    164  NE        21.5220    4.4750   -4.5490 N.pl3 254  ARG254     -0.0865
    165  CZ        21.7990    4.7260   -5.8260 C.cat 254  ARG254      0.5346
    166  NH1       20.8250    5.0020   -6.6810 N.pl3 254  ARG254      0.1354
    167  NH2       23.0540    4.6900   -6.2520 N.pl3 254  ARG254      0.1354
    168  N         21.5220   13.1830  -21.9740 N.3   348  PHE348     -0.1241
    169  CA        22.5960   14.1640  -22.0390 C.3   348  PHE348      0.1605
    170  C         23.2190   14.3390  -23.4000 C.2   348  PHE348      0.2264
    171  O         23.0510   13.5250  -24.3110 O.2   348  PHE348     -0.2867
    172  CB        23.7180   13.7910  -21.0660 C.3   348  PHE348      0.0534
    173  CG        23.2370   13.3810  -19.7100 C.ar  348  PHE348     -0.0203
    174  CD1       22.6250   14.2980  -18.8670 C.ar  348  PHE348     -0.0042
    175  CD2       23.3780   12.0670  -19.2850 C.ar  348  PHE348     -0.0042
    176  CE1       22.1610   13.9140  -17.6250 C.ar  348  PHE348     -0.0003
    177  CE2       22.9140   11.6700  -18.0380 C.ar  348  PHE348     -0.0003
    178  CZ        22.3030   12.5960  -17.2070 C.ar  348  PHE348     -0.0000
    179  N         27.3920   20.2340  -20.2880 N.3   374  ARG374     -0.1245
    180  CA        26.5070   19.0800  -20.3800 C.3   374  ARG374      0.1563
    181  C         25.1150   19.5860  -20.1070 C.2   374  ARG374      0.2260
    182  O         24.8870   20.3220  -19.1460 O.2   374  ARG374     -0.2867
    183  CB        26.8290   18.0150  -19.3400 C.3   374  ARG374      0.0307
    184  CG        25.9520   16.7830  -19.5050 C.3   374  ARG374      0.0489
    185  CD        26.1130   15.7810  -18.3760 C.3   374  ARG374      0.2205
    186  NE        25.3870   16.1800  -17.1720 N.pl3 374  ARG374     -0.0865
    187  CZ        25.0920   15.3580  -16.1650 C.cat 374  ARG374      0.5346
    188  NH1       25.4560   14.0780  -16.1960 N.pl3 374  ARG374      0.1354
    189  NH2       24.4130   15.8170  -15.1270 N.pl3 374  ARG374      0.1354
@<TRIPOS>BOND
     1    85    86    1
     2   171   170    2
     3    86    87    1
     4    86    89    1
     5    90    89    1
     6    78    77    2
     7   170   169    1
     8    87    88    2
     9    77    76    1
    10   169   168    1
    11   169   172    1
    12    75    76    1
    13    79    76    1
    14    79    80    1
    15   115   114    2
    16    91    92    1
    17   172   173    1
    18    80    81   ar
    19    80    82   ar
    20   114   113    1
    21    81    83   ar
    22   180   179    1
    23   180   181    1
    24   180   183    1
    25    92    93    1
    26    92    95    1
    27    93    94    2
    28    82    84   ar
    29   116   113    1
    30   116   117    1
    31   181   182    2
    32   173   175   ar
    33   173   174   ar
    34    83    84   ar
    35   184   183    1
    36   184   185    1
    37   113   112    1
    38   117   119   ar
    39   117   118   ar
    40   175   177   ar
    41   102   101    2
    42   119   121   ar
    43    95    96    1
    44   174   176   ar
    45   112   109   am
    46   118   120   ar
    47   185   186    1
    48    97    96    2
    49   121   122   ar
    50    99   100    1
    51   101   100    1
    52   177   178   ar
    53    96    98   am
    54   120   122   ar
    55   176   178   ar
    56   107   108    1
    57   122   123    1
    58   109   108    1
    59   109   110    2
    60   100   103    1
    61   186   187    2
    62   103   104    1
    63    51    52    1
    64   108   111    1
    65   188   187    1
    66   187   189    1
    67    73    71   ar
    68    73    74   ar
    69   104   106   ar
    70   104   105   ar
    71   140   141    1
    72   140   137    1
    73    71    70   ar
    74    52    55    1
    75    52    53    1
    76   141   142    1
    77   139   138    2
    78   138   137    1
    79    24    23    2
    80    16    14    1
    81    55    56    1
    82    74    72   ar
    83    14    13    1
    84   137   136    1
    85   143   142    1
    86   143   144    1
    87    23    22    1
    88   127   126    2
    89    53    54    2
    90    70    72   ar
    91    70    69    1
    92    18    17    1
    93    18    19    1
    94    17    11   am
    95     9    10    1
    96    19    21   am
    97    19    20    2
    98    21    22    1
    99    56    57   ar
   100    56    58   ar
   101    69    66    1
   102   124   125    1
   103   136   132   am
   104   156   155    1
   105    22    25    1
   106    57    59   ar
   107   126   125    1
   108    13    10    1
   109    13    15    1
   110    11    10    1
   111    11    12    2
   112    50    48    1
   113   125   128    1
   114    58    61   ar
   115    58    60   ar
   116   128   129    1
   117     8     6    1
   118    61    63   ar
   119   132   133    2
   120   132   131    1
   121   155   153   ar
   122   155   154   ar
   123     6     5    1
   124    59    60   ar
   125    66    65    1
   126    66    67    1
   127    25    26    1
   128    25    27    1
   129   153   151   ar
   130    49    48    1
   131   130   131    1
   132    60    62   ar
   133    48    47    1
   134    67    68    2
   135     7     5    1
   136    63    64   ar
   137   131   134    1
   138   154   152   ar
   139     5     2    1
   140   134   135    1
   141   151   150   ar
   142    62    64   ar
   143     2     1    1
   144     2     3    1
   145    33    34    1
   146    33    32    1
   147    47    44    1
   148   152   150   ar
   149    35    34    2
   150    34    36   am
   151    44    43    1
   152    44    45    1
   153   150   149    1
   154     4     3    2
   155    32    30   am
   156    36    37    1
   157    46    45    2
   158   145   146    1
   159    41    40    1
   160    37    40    1
   161    37    38    1
   162    30    31    2
   163    30    29    1
   164   149   146    1
   165   146   147    1
   166    40    42    1
   167    29    28    1
   168    38    39    2
   169   147   148    2
   170   166   165    1
   171   167   165    1
   172   165   164    2
   173   159   158    1
   174   159   160    2
   175   158   157    1
   176   158   161    1
   177   164   163    1
   178   163   162    1
   179   161   162    1
