@<TRIPOS>MOLECULE
tmp/1c9dA00.pdb
 157 148 0 0 0
SMALL
GASTEIGER

@<TRIPOS>ATOM
      1  N         45.6660   33.7180   16.3130 N.3    21  PHE21      -0.1241
      2  CA        46.9270   33.3710   16.9610 C.3    21  PHE21       0.1605
      3  C         47.8930   34.5510   16.9240 C.2    21  PHE21       0.2264
      4  O         47.8210   35.3900   16.0330 O.2    21  PHE21      -0.2867
      5  CB        47.5680   32.1460   16.2830 C.3    21  PHE21       0.0534
      6  CG        49.0000   31.8700   16.7150 C.ar   21  PHE21      -0.0203
      7  CD1       50.0730   32.5450   16.1210 C.ar   21  PHE21      -0.0042
      8  CD2       49.2780   30.9380   17.7100 C.ar   21  PHE21      -0.0042
      9  CE1       51.3840   32.2930   16.5120 C.ar   21  PHE21      -0.0003
     10  CE2       50.5860   30.6810   18.1060 C.ar   21  PHE21      -0.0003
     11  CZ        51.6410   31.3610   17.5040 C.ar   21  PHE21      -0.0000
     12  N         44.8760   31.4380   20.8380 N.3    48  GLU48      -0.1245
     13  CA        45.9830   30.4820   20.6690 C.3    48  GLU48       0.1567
     14  C         47.2180   31.3770   20.8010 C.2    48  GLU48       0.2260
     15  O         47.4020   32.3200   20.0290 O.2    48  GLU48      -0.2867
     16  CB        45.9050   29.8010   19.2960 C.3    48  GLU48       0.0388
     17  CG        46.6560   28.4700   19.1360 C.3    48  GLU48       0.1160
     18  CD        46.3880   27.4240   20.2060 C.2    48  GLU48       0.3649
     19  OE1       45.2110   27.1090   20.4900 O.co2  48  GLU48      -0.2457
     20  OE2       47.3800   26.8780   20.7360 O.co2  48  GLU48      -0.2457
     21  N         57.8650   23.9030   13.1830 N.3    58  ALA58      -0.1231
     22  CA        56.5600   23.6350   12.5980 C.3    58  ALA58       0.1694
     23  C         55.9710   24.9390   12.1040 C.2    58  ALA58       0.2592
     24  O         54.8220   24.9730   11.6580 O.2    58  ALA58      -0.2718
     25  CB        55.6360   22.9870   13.6060 C.3    58  ALA58       0.0304
     26  N         56.7890   25.9900   12.1030 N.am   59  ASP59      -0.1974
     27  CA        56.3380   27.3110   11.6850 C.3    59  ASP59       0.1709
     28  C         57.0290   27.8840   10.4580 C.2    59  ASP59       0.2293
     29  O         58.2310   27.6880   10.2580 O.2    59  ASP59      -0.2864
     30  CB        56.4760   28.3040   12.8500 C.3    59  ASP59       0.1436
     31  CG        55.4580   28.0540   13.9550 C.2    59  ASP59       0.3671
     32  OD1       54.2440   28.1170   13.6650 O.co2  59  ASP59      -0.2456
     33  OD2       55.8690   27.8000   15.1090 O.co2  59  ASP59      -0.2456
     34  N         55.5130   33.3910   11.2340 N.3    63  ILE63      -0.1245
     35  CA        55.5410   33.0780   12.6560 C.3    63  ILE63       0.1561
     36  C         56.9680   32.9610   13.2110 C.2    63  ILE63       0.2260
     37  O         57.2210   33.2660   14.3800 O.2    63  ILE63      -0.2867
     38  CB        54.6760   31.8250   12.9460 C.3    63  ILE63       0.0252
     39  CG1       53.2020   32.1660   12.7020 C.3    63  ILE63       0.0019
     40  CG2       54.8480   31.3510   14.3780 C.3    63  ILE63       0.0019
     41  CD1       52.2350   31.0210   12.9850 C.3    63  ILE63       0.0001
     42  N         50.6590   27.3980   22.4510 N.3    99  LEU99      -0.1245
     43  CA        51.3710   26.6750   21.3950 C.3    99  LEU99       0.1561
     44  C         52.7770   26.5610   21.9590 C.2    99  LEU99       0.2260
     45  O         53.4640   27.5740   22.1540 O.2    99  LEU99      -0.2867
     46  CB        51.3830   27.4400   20.0640 C.3    99  LEU99       0.0270
     47  CG        52.0770   26.7500   18.8700 C.3    99  LEU99       0.0019
     48  CD1       53.5910   26.8840   18.9480 C.3    99  LEU99       0.0001
     49  CD2       51.6770   25.2800   18.7960 C.3    99  LEU99       0.0001
     50  N         56.6420   24.0050   22.2680 N.3   101  TYR101     -0.1241
     51  CA        57.5910   23.0470   21.6840 C.3   101  TYR101      0.1605
     52  C         58.0680   22.2520   22.9000 C.2   101  TYR101      0.2264
     53  O         58.1030   22.7890   24.0090 O.2   101  TYR101     -0.2867
     54  CB        58.7370   23.7290   20.9240 C.3   101  TYR101      0.0534
     55  CG        58.3010   24.1580   19.5440 C.ar  101  TYR101     -0.0201
     56  CD1       58.2540   23.2460   18.4890 C.ar  101  TYR101     -0.0009
     57  CD2       57.8510   25.4560   19.3100 C.ar  101  TYR101     -0.0009
     58  CE1       57.7660   23.6220   17.2320 C.ar  101  TYR101      0.0417
     59  CE2       57.3650   25.8370   18.0660 C.ar  101  TYR101      0.0417
     60  CZ        57.3240   24.9220   17.0390 C.ar  101  TYR101      0.1957
     61  OH        56.8600   25.3180   15.8130 O.3   101  TYR101     -0.2866
     62  N         49.1050   22.5950   23.4110 N.3   126  LEU126     -0.1245
     63  CA        49.4840   21.8060   22.2470 C.3   126  LEU126      0.1561
     64  C         51.0140   21.8670   22.1850 C.2   126  LEU126      0.2260
     65  O         51.5990   22.9650   22.2460 O.2   126  LEU126     -0.2867
     66  CB        48.8940   22.4270   20.9780 C.3   126  LEU126      0.0270
     67  CG        49.5000   22.0120   19.6320 C.3   126  LEU126      0.0019
     68  CD1       49.3840   20.5110   19.4240 C.3   126  LEU126      0.0001
     69  CD2       48.8180   22.7740   18.5110 C.3   126  LEU126      0.0001
     70  N         53.6980   21.1070   19.7680 N.3   128  ALA128     -0.1245
     71  CA        53.8730   20.8190   18.3490 C.3   128  ALA128      0.1562
     72  C         54.7750   19.6510   17.9410 C.2   128  ALA128      0.2260
     73  O         54.5390   19.0300   16.8950 O.2   128  ALA128     -0.2867
     74  CB        54.2560   22.0910   17.5990 C.3   128  ALA128      0.0290
     75  N         46.8660   16.4510   17.4970 N.3   152  ILE152     -0.1245
     76  CA        46.7650   16.7980   16.0920 C.3   152  ILE152      0.1561
     77  C         46.2900   15.6510   15.2120 C.2   152  ILE152      0.2260
     78  O         46.7870   14.5280   15.3130 O.2   152  ILE152     -0.2867
     79  CB        48.1070   17.3940   15.5760 C.3   152  ILE152      0.0252
     80  CG1       48.2130   18.8560   16.0310 C.3   152  ILE152      0.0019
     81  CG2       48.2230   17.2830   14.0580 C.3   152  ILE152      0.0019
     82  CD1       49.4430   19.5890   15.5510 C.3   152  ILE152      0.0001
     83  N         42.7100   19.3370   17.0240 N.3   174  TYR174     -0.1241
     84  CA        43.3410   20.2060   16.0390 C.3   174  TYR174      0.1605
     85  C         43.3290   19.5250   14.6770 C.2   174  TYR174      0.2264
     86  O         44.1400   18.6300   14.4280 O.2   174  TYR174     -0.2867
     87  CB        44.7790   20.5340   16.4730 C.3   174  TYR174      0.0534
     88  CG        45.3480   21.8140   15.8810 C.ar  174  TYR174     -0.0201
     89  CD1       45.5170   21.9570   14.5020 C.ar  174  TYR174     -0.0009
     90  CD2       45.7010   22.8890   16.7000 C.ar  174  TYR174     -0.0009
     91  CE1       46.0160   23.1320   13.9500 C.ar  174  TYR174      0.0417
     92  CE2       46.2020   24.0780   16.1570 C.ar  174  TYR174      0.0417
     93  CZ        46.3580   24.1920   14.7760 C.ar  174  TYR174      0.1957
     94  OH        46.8610   25.3520   14.2180 O.3   174  TYR174     -0.2866
     95  N         53.1280   26.0940    9.1760 N.3   182  THR182     -0.1203
     96  CA        52.1860   27.2100    9.2720 C.3   182  THR182      0.1994
     97  C         52.5050   28.2750    8.2260 C.2   182  THR182      0.2618
     98  O         53.6770   28.5700    7.9680 O.2   182  THR182     -0.2717
     99  CB        52.2340   27.8910   10.6720 C.3   182  THR182      0.1784
    100  OG1       53.5270   28.4690   10.8900 O.3   182  THR182     -0.2211
    101  CG2       51.9360   26.8950   11.7780 C.3   182  THR182      0.0376
    102  N         51.4650   28.8690    7.6480 N.am  183  GLY183     -0.1942
    103  CA        51.6630   29.9070    6.6530 C.3   183  GLY183      0.2014
    104  C         50.4180   30.1430    5.8260 C.2   183  GLY183      0.2638
    105  O         49.9370   29.2260    5.1600 O.2   183  GLY183     -0.2714
    106  N         49.8840   31.3630    5.8790 N.am  184  ALA184     -0.1977
    107  CA        48.6830   31.7270    5.1190 C.3   184  ALA184      0.1597
    108  C         49.0610   31.9850    3.6610 C.2   184  ALA184      0.2287
    109  O         48.2010   32.2250    2.8080 O.2   184  ALA184     -0.2864
    110  CB        48.0440   32.9710    5.7150 C.3   184  ALA184      0.0319
    111  N         45.7530   26.0360    9.8660 N.3   209  PHE209     -0.1227
    112  CA        46.7690   26.0670    8.7920 C.3   209  PHE209      0.1736
    113  C         46.1940   26.6050    7.4780 C.2   209  PHE209      0.2596
    114  O         45.2650   26.0190    6.9150 O.2   209  PHE209     -0.2718
    115  CB        47.4250   24.6980    8.5260 C.3   209  PHE209      0.0547
    116  CG        48.5920   24.3660    9.4370 C.ar  209  PHE209     -0.0202
    117  CD1       49.7010   23.6870    8.9350 C.ar  209  PHE209     -0.0042
    118  CD2       48.5570   24.6680   10.8000 C.ar  209  PHE209     -0.0042
    119  CE1       50.7560   23.3030    9.7770 C.ar  209  PHE209     -0.0003
    120  CE2       49.6060   24.2880   11.6520 C.ar  209  PHE209     -0.0003
    121  CZ        50.7050   23.6030   11.1390 C.ar  209  PHE209     -0.0000
    122  N         46.7230   27.7430    7.0260 N.am  210  GLY210     -0.1942
    123  CA        46.2910   28.3520    5.7760 C.3   210  GLY210      0.2014
    124  C         44.9850   29.1340    5.7280 C.2   210  GLY210      0.2638
    125  O         44.6400   29.6840    4.6770 O.2   210  GLY210     -0.2714
    126  N         44.2720   29.2130    6.8520 N.am  211  ILE211     -0.1977
    127  CA        42.9990   29.9370    6.9140 C.3   211  ILE211      0.1596
    128  C         43.2790   31.4410    6.9600 C.2   211  ILE211      0.2287
    129  O         43.7350   31.9540    7.9810 O.2   211  ILE211     -0.2864
    130  CB        42.1890   29.5290    8.1750 C.3   211  ILE211      0.0276
    131  CG1       42.0460   28.0030    8.2730 C.3   211  ILE211      0.0022
    132  CG2       40.8320   30.2260    8.1910 C.3   211  ILE211      0.0022
    133  CD1       41.2520   27.3660    7.1760 C.3   211  ILE211      0.0001
    134  N         41.1220   28.3240   13.1350 N.3   229  ILE229     -0.1231
    135  CA        42.2460   29.0640   13.7180 C.3   229  ILE229      0.1692
    136  C         43.0090   29.7800   12.5870 C.2   229  ILE229      0.2593
    137  O         43.1580   29.2340   11.4870 O.2   229  ILE229     -0.2718
    138  CB        43.2180   28.0970   14.4530 C.3   229  ILE229      0.0266
    139  CG1       42.4930   27.3930   15.6030 C.3   229  ILE229      0.0019
    140  CG2       44.4440   28.8570   14.9790 C.3   229  ILE229      0.0020
    141  CD1       43.1960   26.1610   16.1060 C.3   229  ILE229      0.0001
    142  N         43.4870   30.9930   12.8560 N.am  230  SER230     -0.1938
    143  CA        44.2340   31.7630   11.8710 C.3   230  SER230      0.2055
    144  C         45.3910   32.5160   12.5300 C.2   230  SER230      0.2644
    145  O         45.1710   33.3880   13.3700 O.2   230  SER230     -0.2714
    146  CB        43.2980   32.7470   11.1610 C.3   230  SER230      0.2130
    147  OG        44.0030   33.5770   10.2470 O.3   230  SER230     -0.2179
    148  N         46.6190   32.2160   12.1060 N.am  231  GLY231     -0.1939
    149  CA        47.7960   32.8640   12.6790 C.3   231  GLY231      0.2014
    150  C         48.5900   33.7910   11.7720 C.2   231  GLY231      0.2639
    151  O         48.7090   34.9800   12.0620 O.2   231  GLY231     -0.2714
    152  N         49.1110   33.2730   10.6630 N.am  232  SER232     -0.1949
    153  CA        49.8980   34.0920    9.7440 C.3   232  SER232      0.1924
    154  C         49.1810   35.3550    9.2540 C.2   232  SER232      0.2314
    155  O         49.7660   36.4450    9.2290 O.2   232  SER232     -0.2863
    156  CB        50.3740   33.2540    8.5590 C.3   232  SER232      0.2116
    157  OG        51.2880   32.2430    8.9740 O.3   232  SER232     -0.2180
@<TRIPOS>BOND
     1   109   108    2
     2   108   107    1
     3   125   124    2
     4   107   110    1
     5   107   106    1
     6   105   104    2
     7   124   123    1
     8   124   126   am
     9   123   122    1
    10   104   106   am
    11   104   103    1
    12   103   102    1
    13   126   127    1
    14   127   128    1
    15   127   130    1
    16   114   113    2
    17   128   129    2
    18   122   113   am
    19   133   131    1
    20   113   112    1
    21   102    97   am
    22    98    97    2
    23   130   132    1
    24   130   131    1
    25    97    96    1
    26   115   112    1
    27   115   116    1
    28   156   157    1
    29   156   153    1
    30   112   111    1
    31   117   116   ar
    32   117   119   ar
    33    95    96    1
    34   155   154    2
    35   154   153    1
    36    96    99    1
    37   116   118   ar
    38   153   152    1
    39   119   121   ar
    40   147   146    1
    41    29    28    2
    42    28    27    1
    43   152   150   am
    44    99   100    1
    45    99   101    1
    46   118   120   ar
    47   121   120   ar
    48   146   143    1
    49    34    35    1
    50   137   136    2
    51    24    23    2
    52    27    26    1
    53    27    30    1
    54   150   151    2
    55   150   149    1
    56   143   144    1
    57   143   142    1
    58    26    23   am
    59    23    22    1
    60   148   144   am
    61   148   149    1
    62   144   145    2
    63   136   142   am
    64   136   135    1
    65    22    21    1
    66    22    25    1
    67    35    38    1
    68    35    36    1
    69    39    38    1
    70    39    41    1
    71    30    31    1
    72    38    40    1
    73   134   135    1
    74    36    37    2
    75    32    31   ar
    76   135   138    1
    77    91    89   ar
    78    91    93   ar
    79    31    33   ar
    80    81    79    1
    81    94    93    1
    82    86    85    2
    83   138   140    1
    84   138   139    1
    85    89    88   ar
    86    85    84    1
    87    93    92   ar
    88    77    78    2
    89    77    76    1
    90    82    80    1
    91    79    80    1
    92    79    76    1
    93   139   141    1
    94    61    60    1
    95    88    87    1
    96    88    90   ar
    97     4     3    2
    98    84    87    1
    99    84    83    1
   100    76    75    1
   101     7     9   ar
   102     7     6   ar
   103    92    90   ar
   104     5     6    1
   105     5     2    1
   106     1     2    1
   107     9    11   ar
   108     6     8   ar
   109    73    72    2
   110     3     2    1
   111    60    58   ar
   112    60    59   ar
   113    58    56   ar
   114    11    10   ar
   115    74    71    1
   116     8    10   ar
   117    72    71    1
   118    59    57   ar
   119    71    70    1
   120    56    55   ar
   121    69    67    1
   122    49    47    1
   123    47    48    1
   124    47    46    1
   125    17    16    1
   126    17    18    1
   127    16    13    1
   128    57    55   ar
   129    68    67    1
   130    55    54    1
   131    67    66    1
   132    15    14    2
   133    46    43    1
   134    18    19   ar
   135    18    20   ar
   136    13    14    1
   137    13    12    1
   138    54    51    1
   139    66    63    1
   140    43    44    1
   141    43    42    1
   142    51    50    1
   143    51    52    1
   144    44    45    2
   145    64    65    2
   146    64    63    1
   147    63    62    1
   148    52    53    2
