@<TRIPOS>MOLECULE
tmp/1c9iA00.pdb
 149 142 0 0 0
SMALL
GASTEIGER

@<TRIPOS>ATOM
      1  N         27.0020  -13.6450    0.7190 N.3    48  VAL48      -0.1245
      2  CA        27.0040  -13.1110    2.0700 C.3    48  VAL48       0.1561
      3  C         28.1180  -13.7270    2.8660 C.2    48  VAL48       0.2260
      4  O         28.4870  -14.8980    2.6720 O.2    48  VAL48      -0.2867
      5  CB        25.7900  -13.4330    2.9060 C.3    48  VAL48       0.0252
      6  CG1       24.7770  -12.3520    2.7800 C.3    48  VAL48       0.0019
      7  CG2       25.2590  -14.7800    2.5200 C.3    48  VAL48       0.0019
      8  N         28.8040  -14.3360    6.6880 N.3    50  ILE50      -0.1245
      9  CA        28.2290  -14.3470    8.0220 C.3    50  ILE50       0.1561
     10  C         29.4020  -14.4350    8.9910 C.2    50  ILE50       0.2260
     11  O         30.3920  -15.1420    8.7330 O.2    50  ILE50      -0.2867
     12  CB        27.3690  -15.5740    8.2180 C.3    50  ILE50       0.0252
     13  CG1       26.2430  -15.5680    7.1810 C.3    50  ILE50       0.0019
     14  CG2       26.8430  -15.6110    9.6240 C.3    50  ILE50       0.0019
     15  CD1       25.5210  -16.8910    7.0530 C.3    50  ILE50       0.0001
     16  N         28.7160  -17.6830    1.4810 N.3    62  ARG62      -0.1231
     17  CA        27.7330  -18.3920    0.6720 C.3    62  ARG62       0.1679
     18  C         27.2570  -17.5050   -0.4580 C.2    62  ARG62       0.2434
     19  O         27.0380  -16.3040   -0.2670 O.2    62  ARG62      -0.2733
     20  CB        26.5150  -18.8000    1.5140 C.3    62  ARG62       0.0321
     21  CG        26.8060  -19.7890    2.6070 C.3    62  ARG62       0.0489
     22  CD        27.5490  -20.9740    2.0500 C.3    62  ARG62       0.2205
     23  NE        27.8200  -21.9650    3.0770 N.pl3  62  ARG62      -0.0865
     24  CZ        28.6130  -23.0170    2.9150 C.cat  62  ARG62       0.5346
     25  NH1       29.2260  -23.2240    1.7490 N.pl3  62  ARG62       0.1354
     26  NH2       28.7890  -23.8630    3.9260 N.pl3  62  ARG62       0.1354
     27  N         27.0690  -18.0870   -1.6540 N.am   63  PRO63      -0.2718
     28  CA        26.6060  -17.3080   -2.8000 C.3    63  PRO63       0.1535
     29  C         25.1730  -16.8570   -2.5600 C.2    63  PRO63       0.2598
     30  O         24.3280  -17.6490   -2.1110 O.2    63  PRO63      -0.2715
     31  CB        26.7090  -18.3040   -3.9500 C.3    63  PRO63       0.0310
     32  CG        27.7500  -19.2790   -3.4950 C.3    63  PRO63       0.0237
     33  CD        27.3480  -19.4750   -2.0630 C.3    63  PRO63       0.0939
     34  N         24.9100  -15.5810   -2.8120 N.am   64  ILE64      -0.1964
     35  CA        23.5570  -15.0620   -2.6550 C.3    64  ILE64       0.1727
     36  C         23.3080  -14.1460   -3.8280 C.2    64  ILE64       0.2617
     37  O         24.2290  -13.7740   -4.5480 O.2    64  ILE64      -0.2715
     38  CB        23.3620  -14.2000   -1.3820 C.3    64  ILE64       0.0290
     39  CG1       24.3400  -13.0140   -1.4220 C.3    64  ILE64       0.0022
     40  CG2       23.4640  -15.0650   -0.1440 C.3    64  ILE64       0.0023
     41  CD1       23.8200  -11.7690   -0.7670 C.3    64  ILE64       0.0001
     42  N         22.0510  -13.7880   -4.0160 N.am   65  SER65      -0.1936
     43  CA        21.6900  -12.8700   -5.0750 C.3    65  SER65       0.2055
     44  C         20.5890  -12.0490   -4.4490 C.2    65  SER65       0.2642
     45  O         19.5320  -11.8260   -5.0370 O.2    65  SER65      -0.2714
     46  CB        21.1750  -13.6160   -6.3030 C.3    65  SER65       0.2130
     47  OG        20.0140  -14.3610   -5.9910 O.3    65  SER65      -0.2179
     48  N         20.8310  -11.6380   -3.2160 N.am   66  ALA66      -0.1977
     49  CA        19.8660  -10.8130   -2.5140 C.3    66  ALA66       0.1597
     50  C         20.4210   -9.3840   -2.5010 C.2    66  ALA66       0.2287
     51  O         21.6490   -9.1660   -2.5660 O.2    66  ALA66      -0.2864
     52  CB        19.6590  -11.3330   -1.0750 C.3    66  ALA66       0.0319
     53  N         18.1850  -16.8100    8.3210 N.3    78  ILE78      -0.1245
     54  CA        18.4160  -15.5290    7.6550 C.3    78  ILE78       0.1561
     55  C         17.3480  -15.0620    6.6570 C.2    78  ILE78       0.2260
     56  O         16.7970  -15.8480    5.8650 O.2    78  ILE78      -0.2867
     57  CB        19.7750  -15.5570    6.9610 C.3    78  ILE78       0.0252
     58  CG1       20.2700  -14.1350    6.6910 C.3    78  ILE78       0.0019
     59  CG2       19.6980  -16.4030    5.6950 C.3    78  ILE78       0.0019
     60  CD1       21.6880  -14.1300    6.0630 C.3    78  ILE78       0.0001
     61  N         16.3870  -12.9600    3.4320 N.3    80  LEU80      -0.1231
     62  CA        17.0180  -12.4250    2.2360 C.3    80  LEU80       0.1693
     63  C         15.9480  -11.8170    1.3580 C.2    80  LEU80       0.2592
     64  O         14.7930  -12.2610    1.3480 O.2    80  LEU80      -0.2718
     65  CB        17.7830  -13.5040    1.4930 C.3    80  LEU80       0.0284
     66  CG        18.9550  -14.0450    2.3130 C.3    80  LEU80       0.0019
     67  CD1       19.8490  -14.8900    1.4290 C.3    80  LEU80       0.0001
     68  CD2       19.7510  -12.9010    2.8950 C.3    80  LEU80       0.0001
     69  N         16.3060  -10.7570    0.6530 N.am   81  LYS81      -0.1966
     70  CA        15.3270  -10.1640   -0.2300 C.3    81  LYS81       0.1728
     71  C         15.9280   -9.7310   -1.5330 C.2    81  LYS81       0.2616
     72  O         17.1230   -9.4360   -1.6370 O.2    81  LYS81      -0.2715
     73  CB        14.5910   -8.9840    0.4270 C.3    81  LYS81       0.0311
     74  CG        15.2820   -7.6400    0.3790 C.3    81  LYS81       0.0038
     75  CD        14.4320   -6.5890    1.1100 C.3    81  LYS81       0.0206
     76  CE        15.1240   -5.2440    1.1120 C.3    81  LYS81       0.1093
     77  NZ        15.6590   -4.8840   -0.2570 N.3    81  LYS81      -0.1314
     78  N         15.0680   -9.7460   -2.5390 N.am   82  ALA82      -0.1977
     79  CA        15.4010   -9.3470   -3.9080 C.3    82  ALA82       0.1597
     80  C         14.0990   -8.6980   -4.4230 C.2    82  ALA82       0.2287
     81  O         13.0800   -9.3540   -4.6880 O.2    82  ALA82      -0.2864
     82  CB        15.8070  -10.5650   -4.7370 C.3    82  ALA82       0.0319
     83  N         10.6340   -9.8930   -3.6320 N.3    85  THR85      -0.1218
     84  CA        10.8310  -11.2710   -3.2200 C.3    85  THR85       0.1862
     85  C         11.5440  -11.4160   -1.8660 C.2    85  THR85       0.2287
     86  O         12.6750  -10.9360   -1.6830 O.2    85  THR85      -0.2866
     87  CB        11.6080  -12.0520   -4.3010 C.3    85  THR85       0.1770
     88  OG1       10.8020  -12.1270   -5.4760 O.3    85  THR85      -0.2211
     89  CG2       11.9070  -13.4790   -3.8520 C.3    85  THR85       0.0375
     90  N         12.6420  -14.2690    1.1470 N.3    87  GLN87      -0.1245
     91  CA        12.8130  -15.6580    1.5980 C.3    87  GLN87       0.1566
     92  C         13.5530  -15.6890    2.9370 C.2    87  GLN87       0.2260
     93  O         14.4460  -14.8820    3.1930 O.2    87  GLN87      -0.2867
     94  CB        13.6140  -16.4860    0.5770 C.3    87  GLN87       0.0367
     95  CG        13.1000  -16.3950   -0.8510 C.3    87  GLN87       0.0905
     96  CD        13.9030  -17.2490   -1.8110 C.2    87  GLN87       0.2608
     97  OE1       15.1370  -17.2190   -1.8120 O.2    87  GLN87      -0.2717
     98  NE2       13.2100  -18.0110   -2.6400 N.am   87  GLN87      -0.0878
     99  N         15.6680  -18.3800    5.2080 N.3    89  PHE89      -0.1227
    100  CA        16.3120  -19.7010    5.2590 C.3    89  PHE89       0.1736
    101  C         16.8420  -20.0500    6.6470 C.2    89  PHE89       0.2595
    102  O         17.2760  -19.1680    7.4080 O.2    89  PHE89      -0.2718
    103  CB        17.5280  -19.7680    4.3350 C.3    89  PHE89       0.0547
    104  CG        17.2200  -19.5860    2.8900 C.ar   89  PHE89      -0.0202
    105  CD1       16.7740  -18.3610    2.4040 C.ar   89  PHE89      -0.0042
    106  CD2       17.4860  -20.6040    1.9800 C.ar   89  PHE89      -0.0042
    107  CE1       16.6120  -18.1420    1.0330 C.ar   89  PHE89      -0.0003
    108  CE2       17.3280  -20.3960    0.6170 C.ar   89  PHE89      -0.0003
    109  CZ        16.8930  -19.1580    0.1450 C.ar   89  PHE89      -0.0000
    110  N         16.8240  -21.3450    6.9600 N.am   90  ASN90      -0.1960
    111  CA        17.4060  -21.8260    8.2130 C.3    90  ASN90       0.1819
    112  C         18.7670  -22.3710    7.7670 C.2    90  ASN90       0.2621
    113  O         18.8960  -23.5390    7.4390 O.2    90  ASN90      -0.2715
    114  CB        16.5960  -22.9600    8.8160 C.3    90  ASN90       0.1195
    115  CG        17.1530  -23.4190   10.1400 C.2    90  ASN90       0.2630
    116  OD1       16.4500  -23.4110   11.1530 O.2    90  ASN90      -0.2716
    117  ND2       18.4270  -23.8220   10.1450 N.am   90  ASN90      -0.0877
    118  N         19.7730  -21.5090    7.7260 N.am   91  ILE91      -0.1977
    119  CA        21.0990  -21.8940    7.2680 C.3    91  ILE91       0.1596
    120  C         21.5590  -23.2870    7.6680 C.2    91  ILE91       0.2287
    121  O         22.0200  -24.0750    6.8330 O.2    91  ILE91      -0.2864
    122  CB        22.1480  -20.8970    7.7710 C.3    91  ILE91       0.0276
    123  CG1       21.7400  -19.4890    7.3570 C.3    91  ILE91       0.0022
    124  CG2       23.5330  -21.2590    7.2300 C.3    91  ILE91       0.0022
    125  CD1       22.6450  -18.4220    7.8770 C.3    91  ILE91       0.0001
    126  N         19.7060  -26.0210    6.1150 N.3    94  LYS94      -0.1231
    127  CA        19.6550  -25.7510    4.6680 C.3    94  LYS94       0.1693
    128  C         18.2560  -25.7160    4.0060 C.2    94  LYS94       0.2593
    129  O         18.0560  -26.3130    2.9560 O.2    94  LYS94      -0.2718
    130  CB        20.4990  -26.7950    3.9280 C.3    94  LYS94       0.0285
    131  CG        21.9950  -26.7780    4.2030 C.3    94  LYS94       0.0035
    132  CD        22.6830  -27.8510    3.3490 C.3    94  LYS94       0.0206
    133  CE        24.2120  -27.8350    3.4440 C.3    94  LYS94       0.1093
    134  NZ        24.8370  -28.7550    2.4180 N.3    94  LYS94      -0.1314
    135  N         17.3050  -25.0070    4.5940 N.am   95  SER95      -0.1938
    136  CA        15.9740  -24.9490    4.0320 C.3    95  SER95       0.2055
    137  C         15.3240  -23.5470    4.0430 C.2    95  SER95       0.2642
    138  O         15.7520  -22.6360    4.7750 O.2    95  SER95      -0.2714
    139  CB        15.0700  -25.8840    4.8110 C.3    95  SER95       0.2130
    140  OG        14.5170  -25.1810    5.9230 O.3    95  SER95      -0.2179
    141  N         14.2850  -23.3980    3.2160 N.am   96  LYS96      -0.1977
    142  CA        13.5180  -22.1700    3.1450 C.3    96  LYS96       0.1596
    143  C         12.3030  -22.3500    4.0430 C.2    96  LYS96       0.2287
    144  O         11.3780  -23.1000    3.7190 O.2    96  LYS96      -0.2864
    145  CB        13.0650  -21.8730    1.7160 C.3    96  LYS96       0.0298
    146  CG        14.1390  -21.2530    0.8460 C.3    96  LYS96       0.0038
    147  CD        13.5020  -20.5340   -0.3350 C.3    96  LYS96       0.0206
    148  CE        12.5790  -21.4570   -1.1010 C.3    96  LYS96       0.1093
    149  NZ        11.7750  -20.7760   -2.1430 N.3    96  LYS96      -0.1314
@<TRIPOS>BOND
     1    46    47    1
     2    46    43    1
     3    88    87    1
     4    43    44    1
     5    43    42    1
     6    45    44    2
     7    82    79    1
     8    81    80    2
     9    37    36    2
    10    44    48   am
    11    80    79    1
    12    87    89    1
    13    87    84    1
    14    42    36   am
    15    31    32    1
    16    31    28    1
    17    79    78    1
    18    36    35    1
    19    83    84    1
    20    32    33    1
    21    84    85    1
    22    48    49    1
    23    34    35    1
    24    34    29   am
    25    28    29    1
    26    28    27    1
    27    35    38    1
    28    98    96   am
    29    51    50    2
    30    29    30    2
    31    78    71   am
    32    49    50    1
    33    49    52    1
    34   149   148    1
    35    33    27    1
    36    85    86    2
    37    97    96    2
    38    96    95    1
    39    27    18   am
    40    72    71    2
    41    71    70    1
    42    39    38    1
    43    39    41    1
    44    38    40    1
    45   148   147    1
    46    95    94    1
    47    18    19    2
    48    18    17    1
    49   147   146    1
    50    77    76    1
    51    70    73    1
    52    70    69    1
    53   109   108   ar
    54   109   107   ar
    55    74    73    1
    56    74    75    1
    57    94    91    1
    58   108   106   ar
    59    69    63   am
    60    17    16    1
    61    17    20    1
    62     1     2    1
    63   146   145    1
    64   107   105   ar
    65    75    76    1
    66    90    91    1
    67    64    63    2
    68    63    62    1
    69    67    66    1
    70    65    62    1
    71    65    66    1
    72    20    21    1
    73    91    92    1
    74   145   142    1
    75    25    24    1
    76   106   104   ar
    77    22    21    1
    78    22    23    1
    79     2     3    1
    80     2     5    1
    81    62    61    1
    82    66    68    1
    83   105   104   ar
    84   134   133    1
    85     7     5    1
    86     4     3    2
    87     6     5    1
    88   104   103    1
    89    24    23    2
    90    24    26    1
    91    92    93    2
    92   129   128    2
    93   142   141    1
    94   142   143    1
    95   141   137   am
    96   132   133    1
    97   132   131    1
    98   144   143    2
    99   130   131    1
   100   130   127    1
   101   128   135   am
   102   128   127    1
   103   136   137    1
   104   136   135    1
   105   136   139    1
   106   137   138    2
   107   103   100    1
   108   127   126    1
   109   139   140    1
   110    99   100    1
   111   100   101    1
   112    59    57    1
   113    56    55    2
   114    60    58    1
   115   101   110   am
   116   101   102    2
   117    55    54    1
   118     8     9    1
   119    58    57    1
   120   121   120    2
   121   110   111    1
   122    57    54    1
   123    15    13    1
   124    13    12    1
   125   124   122    1
   126   119   120    1
   127   119   118    1
   128   119   122    1
   129   123   122    1
   130   123   125    1
   131   113   112    2
   132    54    53    1
   133   118   112   am
   134   112   111    1
   135     9    12    1
   136     9    10    1
   137   111   114    1
   138    12    14    1
   139    11    10    2
   140   114   115    1
   141   115   117   am
   142   115   116    2
