@<TRIPOS>MOLECULE
tmp/1c9iB00.pdb
 135 128 0 0 0
SMALL
GASTEIGER

@<TRIPOS>ATOM
      1  N         20.8990   34.2270   41.6030 N.3    47  VAL47      -0.1245
      2  CA        19.9110   33.6640   42.4960 C.3    47  VAL47       0.1561
      3  C         18.5750   34.2750   42.2440 C.2    47  VAL47       0.2260
      4  O         18.4660   35.4900   42.0730 O.2    47  VAL47      -0.2867
      5  CB        20.2910   33.9020   43.9770 C.3    47  VAL47       0.0252
      6  CG1       19.1400   33.5030   44.8940 C.3    47  VAL47       0.0019
      7  CG2       21.4950   33.0650   44.3270 C.3    47  VAL47       0.0019
      8  N         19.1920   38.1490   40.7040 N.3    61  ARG61      -0.1231
      9  CA        20.4040   38.9090   40.9560 C.3    61  ARG61       0.1679
     10  C         21.6040   38.0370   40.6490 C.2    61  ARG61       0.2434
     11  O         21.5380   36.8230   40.7730 O.2    61  ARG61      -0.2733
     12  CB        20.4360   39.3980   42.4060 C.3    61  ARG61       0.0321
     13  CG        19.2500   40.2580   42.7640 C.3    61  ARG61       0.0489
     14  CD        19.3450   40.7470   44.1820 C.3    61  ARG61       0.2205
     15  NE        18.0860   41.3430   44.6300 N.pl3  61  ARG61      -0.0865
     16  CZ        17.5980   42.5040   44.1930 C.cat  61  ARG61       0.5346
     17  NH1       18.2650   43.2110   43.2850 N.pl3  61  ARG61       0.1354
     18  NH2       16.4460   42.9650   44.6730 N.pl3  61  ARG61       0.1354
     19  N         22.7170   38.6440   40.2230 N.am   62  PRO62      -0.2718
     20  CA        23.9340   37.8950   39.9000 C.3    62  PRO62       0.1535
     21  C         24.6950   37.4610   41.1570 C.2    62  PRO62       0.2598
     22  O         25.0920   38.3090   41.9640 O.2    62  PRO62      -0.2715
     23  CB        24.7720   38.9030   39.1190 C.3    62  PRO62       0.0310
     24  CG        23.7950   39.9120   38.6490 C.3    62  PRO62       0.0237
     25  CD        22.8490   40.0440   39.7920 C.3    62  PRO62       0.0939
     26  N         24.8950   36.1590   41.3340 N.am   63  ILE63      -0.1964
     27  CA        25.6740   35.7010   42.4680 C.3    63  ILE63       0.1727
     28  C         26.7850   34.8160   41.9550 C.2    63  ILE63       0.2617
     29  O         26.8590   34.5300   40.7680 O.2    63  ILE63      -0.2715
     30  CB        24.8270   34.9320   43.4970 C.3    63  ILE63       0.0290
     31  CG1       24.1830   33.7000   42.8440 C.3    63  ILE63       0.0022
     32  CG2       23.7780   35.8650   44.0900 C.3    63  ILE63       0.0023
     33  CD1       25.1360   32.5420   42.5280 C.3    63  ILE63       0.0001
     34  N         27.6730   34.3930   42.8390 N.am   64  SER64      -0.1936
     35  CA        28.7620   33.5160   42.4150 C.3    64  SER64       0.2055
     36  C         28.8860   32.5030   43.5360 C.2    64  SER64       0.2642
     37  O         29.9070   31.8120   43.6810 O.2    64  SER64      -0.2714
     38  CB        30.0720   34.2850   42.2900 C.3    64  SER64       0.2130
     39  OG        30.6280   34.5000   43.5770 O.3    64  SER64      -0.2179
     40  N         27.8290   32.4270   44.3300 N.am   65  ALA65      -0.1977
     41  CA        27.8000   31.5270   45.4510 C.3    65  ALA65       0.1597
     42  C         27.5320   30.1110   44.9960 C.2    65  ALA65       0.2287
     43  O         26.8810   29.8870   43.9800 O.2    65  ALA65      -0.2864
     44  CB        26.7110   31.9630   46.4190 C.3    65  ALA65       0.0319
     45  N         20.1740   37.3310   53.4140 N.3    77  ILE77      -0.1245
     46  CA        20.5890   36.1040   52.7840 C.3    77  ILE77       0.1561
     47  C         22.0130   35.6690   52.9970 C.2    77  ILE77       0.2260
     48  O         22.9380   36.4580   52.8740 O.2    77  ILE77      -0.2867
     49  CB        20.3340   36.1940   51.2570 C.3    77  ILE77       0.0252
     50  CG1       20.2320   34.7820   50.6390 C.3    77  ILE77       0.0019
     51  CG2       21.4630   37.0070   50.5690 C.3    77  ILE77       0.0019
     52  CD1       20.2760   34.7640   49.0950 C.3    77  ILE77       0.0001
     53  N         25.2200   33.6230   51.7730 N.3    79  LEU79      -0.1231
     54  CA        25.7890   33.1690   50.5240 C.3    79  LEU79       0.1693
     55  C         27.1660   32.6550   50.8150 C.2    79  LEU79       0.2592
     56  O         27.9370   33.2820   51.5390 O.2    79  LEU79      -0.2718
     57  CB        25.8820   34.3090   49.5280 C.3    79  LEU79       0.0284
     58  CG        24.5340   34.9250   49.1660 C.3    79  LEU79       0.0019
     59  CD1       24.7920   36.2500   48.4720 C.3    79  LEU79       0.0001
     60  CD2       23.7190   33.9780   48.2950 C.3    79  LEU79       0.0001
     61  N         27.4910   31.5220   50.2160 N.am   80  LYS80      -0.1966
     62  CA        28.7680   30.9100   50.4570 C.3    80  LYS80       0.1728
     63  C         29.4940   30.6040   49.1830 C.2    80  LYS80       0.2616
     64  O         28.8920   30.1410   48.2280 O.2    80  LYS80      -0.2715
     65  CB        28.5210   29.6380   51.2340 C.3    80  LYS80       0.0311
     66  CG        29.3610   28.4950   50.7980 C.3    80  LYS80       0.0038
     67  CD        28.8270   27.2430   51.4000 C.3    80  LYS80       0.0206
     68  CE        29.6700   26.0860   50.9880 C.3    80  LYS80       0.1093
     69  NZ        28.9180   24.8950   51.3600 N.3    80  LYS80      -0.1314
     70  N         30.7980   30.8480   49.1910 N.am   81  ALA81      -0.1977
     71  CA        31.6520   30.6030   48.0410 C.3    81  ALA81       0.1597
     72  C         32.8920   29.8160   48.4620 C.2    81  ALA81       0.2287
     73  O         33.9980   30.3630   48.4920 O.2    81  ALA81      -0.2864
     74  CB        32.0800   31.9250   47.4280 C.3    81  ALA81       0.0319
     75  N         34.4920   30.7960   52.0820 N.3    84  THR84      -0.1218
     76  CA        34.0330   32.1840   52.2850 C.3    84  THR84       0.1862
     77  C         32.5090   32.3020   52.4750 C.2    84  THR84       0.2287
     78  O         31.7320   31.8270   51.6400 O.2    84  THR84      -0.2866
     79  CB        34.4320   33.0640   51.0900 C.3    84  THR84       0.1770
     80  OG1       35.8390   32.9230   50.8480 O.3    84  THR84      -0.2211
     81  CG2       34.1040   34.5210   51.3590 C.3    84  THR84       0.0375
     82  N         29.2060   35.0360   53.4500 N.3    86  GLN86      -0.1245
     83  CA        28.7610   36.4230   53.5320 C.3    86  GLN86       0.1566
     84  C         27.2720   36.4500   53.7660 C.2    86  GLN86       0.2260
     85  O         26.5430   35.6330   53.2330 O.2    86  GLN86      -0.2867
     86  CB        29.0710   37.1830   52.2500 C.3    86  GLN86       0.0367
     87  CG        30.5530   37.4330   51.9810 C.3    86  GLN86       0.0905
     88  CD        30.7900   38.1680   50.6610 C.2    86  GLN86       0.2608
     89  OE1       29.8350   38.5790   49.9960 O.2    86  GLN86      -0.2717
     90  NE2       32.0600   38.3410   50.2780 N.am   86  GLN86      -0.0878
     91  N         24.0560   39.1230   53.5970 N.3    88  PHE88      -0.1227
     92  CA        23.6940   40.4050   53.0300 C.3    88  PHE88       0.1736
     93  C         22.2980   40.7460   53.3900 C.2    88  PHE88       0.2595
     94  O         21.4640   39.8520   53.5000 O.2    88  PHE88      -0.2718
     95  CB        23.7720   40.3670   51.5150 C.3    88  PHE88       0.0547
     96  CG        25.1510   40.4140   50.9870 C.ar   88  PHE88      -0.0202
     97  CD1       25.8740   39.2460   50.8120 C.ar   88  PHE88      -0.0042
     98  CD2       25.7270   41.6300   50.6330 C.ar   88  PHE88      -0.0042
     99  CE1       27.1640   39.2750   50.2750 C.ar   88  PHE88      -0.0003
    100  CE2       27.0160   41.6790   50.1000 C.ar   88  PHE88      -0.0003
    101  CZ        27.7380   40.4940   49.9170 C.ar   88  PHE88      -0.0000
    102  N         22.0270   42.0260   53.6100 N.am   89  ASN89      -0.1960
    103  CA        20.6400   42.4010   53.8360 C.3    89  ASN89       0.1819
    104  C         20.2590   42.9730   52.4720 C.2    89  ASN89       0.2621
    105  O         20.6150   44.1080   52.1430 O.2    89  ASN89      -0.2715
    106  CB        20.4770   43.4540   54.9090 C.3    89  ASN89       0.1195
    107  CG        19.0500   43.9470   54.9950 C.2    89  ASN89       0.2630
    108  OD1       18.3530   43.7530   56.0020 O.2    89  ASN89      -0.2716
    109  ND2       18.5950   44.5890   53.9280 N.am   89  ASN89      -0.0877
    110  N         19.5680   42.1500   51.6760 N.am   90  ILE90      -0.1977
    111  CA        19.1630   42.4940   50.3200 C.3    90  ILE90       0.1596
    112  C         18.5150   43.8750   50.2260 C.2    90  ILE90       0.2287
    113  O         18.9510   44.7170   49.4460 O.2    90  ILE90      -0.2864
    114  CB        18.2160   41.3920   49.7540 C.3    90  ILE90       0.0276
    115  CG1       18.9760   40.0580   49.6630 C.3    90  ILE90       0.0022
    116  CG2       17.7050   41.7840   48.3860 C.3    90  ILE90       0.0022
    117  CD1       18.1010   38.8330   49.4880 C.3    90  ILE90       0.0001
    118  N         21.0370   46.4830   50.7010 N.3    93  LYS93      -0.1245
    119  CA        22.2000   46.2980   49.8260 C.3    93  LYS93       0.1561
    120  C         23.4960   46.3860   50.6240 C.2    93  LYS93       0.2260
    121  O         24.4630   46.9970   50.1920 O.2    93  LYS93      -0.2867
    122  CB        22.2340   47.3420   48.6930 C.3    93  LYS93       0.0271
    123  CG        21.0000   47.3600   47.7680 C.3    93  LYS93       0.0035
    124  CD        21.2050   48.2770   46.5460 C.3    93  LYS93       0.0206
    125  CE        19.9790   48.3320   45.6330 C.3    93  LYS93       0.1093
    126  NZ        20.2330   49.1820   44.4210 N.3    93  LYS93      -0.1314
    127  N         26.4980   44.3370   53.2640 N.3    95  LYS95      -0.1245
    128  CA        27.1450   43.1360   53.7240 C.3    95  LYS95       0.1561
    129  C         27.1510   43.1900   55.2520 C.2    95  LYS95       0.2260
    130  O         27.9450   43.8950   55.8510 O.2    95  LYS95      -0.2867
    131  CB        28.5630   43.1090   53.1730 C.3    95  LYS95       0.0271
    132  CG        29.3050   41.8350   53.4270 C.3    95  LYS95       0.0035
    133  CD        30.6310   41.8930   52.6930 C.3    95  LYS95       0.0206
    134  CE        31.5000   40.7010   53.0320 C.3    95  LYS95       0.1093
    135  NZ        32.8400   40.8250   52.3930 N.3    95  LYS95      -0.1314
@<TRIPOS>BOND
     1    24    23    1
     2    24    25    1
     3    23    20    1
     4    25    19    1
     5    20    19    1
     6    20    21    1
     7    19    10   am
     8    10    11    2
     9    10     9    1
    10     8     9    1
    11    29    28    2
    12     9    12    1
    13    21    26   am
    14    21    22    2
    15    26    27    1
    16     1     2    1
    17    28    27    1
    18    28    34   am
    19     4     3    2
    20     3     2    1
    21    38    35    1
    22    38    39    1
    23    12    13    1
    24    35    34    1
    25    35    36    1
    26    27    30    1
    27     2     5    1
    28    33    31    1
    29    13    14    1
    30    31    30    1
    31    17    16    1
    32    30    32    1
    33    36    37    2
    34    36    40   am
    35     5     7    1
    36     5     6    1
    37    43    42    2
    38    14    15    1
    39    16    15    2
    40    16    18    1
    41    40    41    1
    42   126   125    1
    43    42    41    1
    44    41    44    1
    45   125   124    1
    46   124   123    1
    47    74    71    1
    48   123   122    1
    49    71    72    1
    50    71    70    1
    51    64    63    2
    52    60    58    1
    53   116   114    1
    54    72    73    2
    55    59    58    1
    56   122   119    1
    57    52    50    1
    58    58    57    1
    59    63    70   am
    60    63    62    1
    61   113   112    2
    62   117   115    1
    63    57    54    1
    64   115   114    1
    65   114   111    1
    66   119   120    1
    67   119   118    1
    68   101   100   ar
    69   101    99   ar
    70    89    88    2
    71   100    98   ar
    72   121   120    2
    73    61    62    1
    74    61    55   am
    75   112   111    1
    76    99    97   ar
    77    90    88   am
    78   111   110    1
    79    62    65    1
    80    54    55    1
    81    54    53    1
    82    51    49    1
    83    98    96   ar
    84    50    49    1
    85    88    87    1
    86    66    65    1
    87    66    67    1
    88    97    96   ar
    89    55    56    2
    90    80    79    1
    91    96    95    1
    92    68    69    1
    93    68    67    1
    94    79    81    1
    95    79    76    1
    96    49    46    1
    97    95    92    1
    98    78    77    2
    99   110   104   am
   100    87    86    1
   101    75    76    1
   102   105   104    2
   103    86    83    1
   104    76    77    1
   105   135   134    1
   106   104   103    1
   107   133   134    1
   108   133   132    1
   109    46    47    1
   110    46    45    1
   111    48    47    2
   112    92    93    1
   113    92    91    1
   114   131   132    1
   115   131   128    1
   116    85    84    2
   117   127   128    1
   118    93    94    2
   119    93   102   am
   120    82    83    1
   121    83    84    1
   122   102   103    1
   123   128   129    1
   124   103   106    1
   125   109   107   am
   126   106   107    1
   127   107   108    2
   128   129   130    2
