@<TRIPOS>MOLECULE
tmp/1c9kB00.pdb
 142 132 0 0 0
SMALL
GASTEIGER

@<TRIPOS>ATOM
      1  N         19.8450   35.3830   18.9640 N.3     9  ARG9       -0.1245
      2  CA        20.0920   34.7900   17.6740 C.3     9  ARG9        0.1563
      3  C         21.0590   33.6380   17.7220 C.2     9  ARG9        0.2260
      4  O         21.9430   33.4720   16.8820 O.2     9  ARG9       -0.2867
      5  CB        20.4930   35.8390   16.6510 C.3     9  ARG9        0.0307
      6  CG        19.3140   36.6760   16.1560 C.3     9  ARG9        0.0489
      7  CD        18.4810   36.0080   15.0580 C.3     9  ARG9        0.2205
      8  NE        18.0940   34.6420   15.4070 N.pl3   9  ARG9       -0.0865
      9  CZ        17.7220   33.6590   14.5740 C.cat   9  ARG9        0.5346
     10  NH1       17.3960   32.4560   15.0410 N.pl3   9  ARG9        0.1354
     11  NH2       17.6570   33.8570   13.2590 N.pl3   9  ARG9        0.1354
     12  N         15.2840   29.3430   19.3240 N.3    13  SER13      -0.1217
     13  CA        13.8680   29.1510   18.9280 C.3    13  SER13       0.1889
     14  C         13.6700   27.8780   18.1340 C.2    13  SER13       0.2288
     15  O         12.8060   27.0460   18.4090 O.2    13  SER13      -0.2866
     16  CB        13.1510   30.3240   18.2510 C.3    13  SER13       0.2089
     17  OG        13.7070   31.5750   18.6150 O.3    13  SER13      -0.2183
     18  N          1.5700   27.3620   21.0780 N.3    28  TYR28      -0.1241
     19  CA         2.6770   28.2700   21.1360 C.3    28  TYR28       0.1605
     20  C          2.2980   29.3840   22.0950 C.2    28  TYR28       0.2264
     21  O          1.3110   30.0850   21.8740 O.2    28  TYR28      -0.2867
     22  CB         2.8880   28.8970   19.7480 C.3    28  TYR28       0.0534
     23  CG         4.1060   29.7830   19.6500 C.ar   28  TYR28      -0.0201
     24  CD1        4.0180   31.1720   19.7800 C.ar   28  TYR28      -0.0009
     25  CD2        5.3580   29.2180   19.4080 C.ar   28  TYR28      -0.0009
     26  CE1        5.1440   31.9880   19.6650 C.ar   28  TYR28       0.0417
     27  CE2        6.4990   30.0120   19.3080 C.ar   28  TYR28       0.0417
     28  CZ         6.3830   31.3950   19.4350 C.ar   28  TYR28       0.1957
     29  OH         7.5020   32.1660   19.3220 O.3    28  TYR28      -0.2866
     30  N          3.1420   32.8350   23.3040 N.3    30  ALA30      -0.1231
     31  CA         3.8790   34.0290   22.9280 C.3    30  ALA30       0.1694
     32  C          3.6150   35.2140   23.8690 C.2    30  ALA30       0.2593
     33  O          2.5130   35.7650   23.9290 O.2    30  ALA30      -0.2718
     34  CB         3.6350   34.3610   21.4560 C.3    30  ALA30       0.0304
     35  N          4.6730   35.5730   24.6020 N.am   31  THR31      -0.1939
     36  CA         4.7110   36.6220   25.6120 C.3    31  THR31       0.2028
     37  C          5.0570   38.0340   25.1580 C.2    31  THR31       0.2642
     38  O          4.9210   38.9950   25.9220 O.2    31  THR31      -0.2714
     39  CB         5.6960   36.1720   26.6930 C.3    31  THR31       0.1808
     40  OG1        7.0140   36.2010   26.1760 O.3    31  THR31      -0.2208
     41  CG2        5.3510   34.7300   27.0510 C.3    31  THR31       0.0379
     42  N          5.5150   38.1870   23.9300 N.am   32  SER32      -0.1949
     43  CA         5.8390   39.5310   23.5360 C.3    32  SER32       0.1924
     44  C          4.6190   40.3830   23.3090 C.2    32  SER32       0.2314
     45  O          3.5600   39.9150   22.8950 O.2    32  SER32      -0.2863
     46  CB         6.8500   39.6830   22.4030 C.3    32  SER32       0.2116
     47  OG         7.5440   38.4690   22.1930 O.3    32  SER32      -0.2180
     48  N          3.7230   43.6830   21.1910 N.3    34  ILE34      -0.1245
     49  CA         4.2990   44.4100   20.0690 C.3    34  ILE34       0.1561
     50  C          4.2390   45.9120   20.2310 C.2    34  ILE34       0.2260
     51  O          3.2240   46.5250   19.9190 O.2    34  ILE34      -0.2867
     52  CB         3.6850   44.0620   18.7330 C.3    34  ILE34       0.0252
     53  CG1        3.6330   42.5490   18.5240 C.3    34  ILE34       0.0019
     54  CG2        4.5450   44.7290   17.6720 C.3    34  ILE34       0.0019
     55  CD1        2.4460   42.0950   17.6820 C.3    34  ILE34       0.0001
     56  N          8.2360   42.0120   12.6400 N.3    42  ARG42      -0.1231
     57  CA         9.0580   40.8410   12.7590 C.3    42  ARG42       0.1694
     58  C          8.3430   39.6070   13.2830 C.2    42  ARG42       0.2591
     59  O          8.6710   38.4780   12.9280 O.2    42  ARG42      -0.2718
     60  CB        10.4480   41.1020   13.3190 C.3    42  ARG42       0.0321
     61  CG        10.6150   40.8340   14.8060 C.3    42  ARG42       0.0489
     62  CD        11.9660   41.3290   15.3180 C.3    42  ARG42       0.2205
     63  NE        11.8550   42.5480   16.1160 N.pl3  42  ARG42      -0.0865
     64  CZ        11.3350   42.5560   17.3410 C.cat  42  ARG42       0.5346
     65  NH1       10.8890   41.4410   17.9190 N.pl3  42  ARG42       0.1354
     66  NH2       11.2640   43.7080   18.0050 N.pl3  42  ARG42       0.1354
     67  N          7.3560   39.8270   14.1240 N.am   43  ILE43      -0.1980
     68  CA         6.6130   38.7240   14.6690 C.3    43  ILE43       0.1595
     69  C          5.9820   37.9630   13.5160 C.2    43  ILE43       0.2287
     70  O          5.7170   36.7550   13.5690 O.2    43  ILE43      -0.2864
     71  CB         5.6590   39.2580   15.7230 C.3    43  ILE43       0.0276
     72  CG1        6.3690   39.2510   17.0760 C.3    43  ILE43       0.0022
     73  CG2        4.3850   38.4360   15.7760 C.3    43  ILE43       0.0022
     74  CD1        5.8130   40.2610   18.0710 C.3    43  ILE43       0.0001
     75  N          7.6250   35.0580   12.1940 N.3    46  HIS46      -0.1226
     76  CA         7.4010   34.0290   13.1670 C.3    46  HIS46       0.1752
     77  C          6.1260   33.3120   12.8060 C.2    46  HIS46       0.2595
     78  O          6.1160   32.1020   12.6150 O.2    46  HIS46      -0.2718
     79  CB         7.3530   34.6060   14.5720 C.3    46  HIS46       0.0759
     80  CG         8.6530   35.1830   15.0160 C.ar   46  HIS46       0.0818
     81  ND1        9.8170   34.4340   15.0440 N.ar   46  HIS46      -0.2268
     82  CD2        8.9410   36.4150   15.4760 C.ar   46  HIS46       0.1154
     83  CE1       10.7800   35.2260   15.5070 C.ar   46  HIS46       0.1986
     84  NE2       10.2820   36.4380   15.7920 N.ar   46  HIS46      -0.2212
     85  N          5.0420   34.0650   12.6830 N.am   47  LYS47      -0.1980
     86  CA         3.7930   33.4310   12.3330 C.3    47  LYS47       0.1596
     87  C          3.8540   32.7170   10.9990 C.2    47  LYS47       0.2287
     88  O          3.4400   31.5610   10.8850 O.2    47  LYS47      -0.2864
     89  CB         2.6330   34.4040   12.3690 C.3    47  LYS47       0.0298
     90  CG         2.7070   35.2960   13.5940 C.3    47  LYS47       0.0038
     91  CD         1.8680   36.5560   13.4880 C.3    47  LYS47       0.0206
     92  CE         2.7290   37.8020   13.3520 C.3    47  LYS47       0.1093
     93  NZ         2.2160   38.9690   14.0880 N.3    47  LYS47      -0.1314
     94  N          4.6160   29.5630   11.1400 N.3    50  ARG50      -0.1245
     95  CA         3.8750   28.7040   12.0280 C.3    50  ARG50       0.1563
     96  C          2.8970   27.7630   11.3540 C.2    50  ARG50       0.2260
     97  O          2.2420   28.0850   10.3680 O.2    50  ARG50      -0.2867
     98  CB         3.2510   29.4810   13.1740 C.3    50  ARG50       0.0307
     99  CG         2.8300   28.6530   14.3810 C.3    50  ARG50       0.0489
    100  CD         2.5840   29.5850   15.5550 C.3    50  ARG50       0.2205
    101  NE         3.7260   30.4820   15.7200 N.pl3  50  ARG50      -0.0865
    102  CZ         3.6760   31.7660   16.0680 C.cat  50  ARG50       0.5346
    103  NH1        2.5240   32.3840   16.3150 N.pl3  50  ARG50       0.1354
    104  NH2        4.8200   32.4480   16.1720 N.pl3  50  ARG50       0.1354
    105  N         -1.8600   29.6020   18.8030 N.3    56  THR56      -0.1218
    106  CA        -1.0940   30.6560   19.4230 C.3    56  THR56       0.1862
    107  C         -1.9400   31.4000   20.3960 C.2    56  THR56       0.2287
    108  O         -3.1580   31.5360   20.2850 O.2    56  THR56      -0.2866
    109  CB        -0.4930   31.6530   18.4050 C.3    56  THR56       0.1770
    110  OG1        0.3020   30.9970   17.4350 O.3    56  THR56      -0.2211
    111  CG2        0.3100   32.7240   19.1580 C.3    56  THR56       0.0375
    112  N         -1.0370   34.5990   22.7070 N.3    58  GLU58      -0.1245
    113  CA        -0.7060   35.8200   22.9480 C.3    58  GLU58       0.1567
    114  C         -1.0900   36.1340   24.3340 C.2    58  GLU58       0.2260
    115  O         -1.7430   37.1650   24.6880 O.2    58  GLU58      -0.2867
    116  CB        -1.1390   36.7770   21.8520 C.3    58  GLU58       0.0388
    117  CG        -0.2480   36.7200   20.6080 C.3    58  GLU58       0.1160
    118  CD        -0.7700   37.7520   19.6620 C.2    58  GLU58       0.3649
    119  OE1       -0.0810   38.6580   19.2490 O.co2  58  GLU58      -0.2457
    120  OE2       -2.0400   37.5880   19.3840 O.co2  58  GLU58      -0.2457
    121  N          7.3800   31.1030   24.5170 N.3    80  GLU80      -0.1231
    122  CA         8.3890   32.0330   24.0250 C.3    80  GLU80       0.1699
    123  C          8.1310   33.5150   24.3140 C.2    80  GLU80       0.2592
    124  O          7.2540   34.1180   23.6890 O.2    80  GLU80      -0.2718
    125  CB         8.5910   31.8440   22.5180 C.3    80  GLU80       0.0402
    126  CG        10.0710   31.7960   22.1380 C.3    80  GLU80       0.1161
    127  CD        10.2910   30.8430   21.0190 C.2    80  GLU80       0.3649
    128  OE1        9.3790   30.2980   20.4240 O.co2  80  GLU80      -0.2457
    129  OE2       11.5570   30.6650   20.7500 O.co2  80  GLU80      -0.2457
    130  N          8.9110   34.1220   25.2370 N.am   81  CYS81      -0.1970
    131  CA         9.9950   33.5190   26.0200 C.3    81  CYS81       0.1712
    132  C         10.0200   34.1120   27.4220 C.2    81  CYS81       0.2296
    133  O          9.4090   35.1460   27.6930 O.2    81  CYS81      -0.2864
    134  CB        11.3500   33.8650   25.3760 C.3    81  CYS81       0.0983
    135  SG        11.4920   35.6560   25.1100 S.3    81  CYS81      -0.0798
    136  N         10.9410   38.1170   28.0360 N.3    84  THR84      -0.1218
    137  CA         9.9200   39.0500   27.6120 C.3    84  THR84       0.1862
    138  C          8.8590   39.1450   28.6850 C.2    84  THR84       0.2287
    139  O          8.3470   40.1990   29.0450 O.2    84  THR84      -0.2866
    140  CB         9.2990   38.4540   26.3430 C.3    84  THR84       0.1770
    141  OG1       10.0570   38.8850   25.2380 O.3    84  THR84      -0.2211
    142  CG2        7.8490   38.8730   26.1900 C.3    84  THR84       0.0375
@<TRIPOS>BOND
     1    97    96    2
     2    88    87    2
     3    87    86    1
     4    94    95    1
     5    96    95    1
     6    95    98    1
     7    75    76    1
     8    86    89    1
     9    86    85    1
    10    89    90    1
    11    78    77    2
    12    56    57    1
    13    85    77   am
    14    57    58    1
    15    57    60    1
    16    77    76    1
    17    59    58    2
    18    76    79    1
    19    98    99    1
    20    11     9    1
    21    58    67   am
    22    60    61    1
    23    92    91    1
    24    92    93    1
    25    91    90    1
    26    69    70    2
    27    69    68    1
    28    67    68    1
    29    99   100    1
    30    79    80    1
    31     9    10    1
    32     9     8    2
    33    68    71    1
    34    61    62    1
    35    80    81   ar
    36    80    82   ar
    37    81    83   ar
    38     7     8    1
    39     7     6    1
    40    62    63    1
    41    82    84   ar
    42    83    84   ar
    43   100   101    1
    44   101   102    2
    45    71    73    1
    46    71    72    1
    47   102   104    1
    48   102   103    1
    49    63    64    2
    50     6     5    1
    51     5     2    1
    52     4     3    2
    53    72    74    1
    54    64    65    1
    55    64    66    1
    56   110   109    1
    57    54    52    1
    58     2     3    1
    59     2     1    1
    60    55    53    1
    61    14    15    2
    62    14    13    1
    63    16    17    1
    64    16    13    1
    65   109   111    1
    66   109   106    1
    67    53    52    1
    68    52    49    1
    69   105   106    1
    70    13    12    1
    71   119   118   ar
    72    27    25   ar
    73    27    28   ar
    74    29    28    1
    75   120   118   ar
    76    25    23   ar
    77   106   107    1
    78    28    26   ar
    79    23    22    1
    80    23    24   ar
    81   118   117    1
    82    26    24   ar
    83    22    19    1
    84    51    50    2
    85    49    50    1
    86    49    48    1
    87   108   107    2
    88   128   127   ar
    89   117   116    1
    90   129   127   ar
    91   127   126    1
    92    18    19    1
    93    19    20    1
    94    34    31    1
    95   116   113    1
    96    21    20    2
    97   126   125    1
    98    47    46    1
    99    46    43    1
   100   125   122    1
   101   112   113    1
   102    45    44    2
   103    31    30    1
   104    31    32    1
   105   113   114    1
   106    44    43    1
   107    43    42    1
   108   124   123    2
   109    32    33    2
   110    32    35   am
   111    42    37   am
   112   122   123    1
   113   122   121    1
   114   123   130   am
   115   114   115    2
   116    35    36    1
   117   135   134    1
   118    37    36    1
   119    37    38    2
   120   130   131    1
   121   141   140    1
   122   134   131    1
   123    36    39    1
   124   131   132    1
   125    40    39    1
   126   142   140    1
   127   140   137    1
   128    39    41    1
   129   132   133    2
   130   137   136    1
   131   137   138    1
   132   138   139    2
