@<TRIPOS>MOLECULE
tmp/1c9kC01.pdb
 103 96 0 0 0
SMALL
GASTEIGER

@<TRIPOS>ATOM
      1  N         28.0690   31.1250   42.5740 N.3    13  SER13      -0.1217
      2  CA        28.3620   31.1310   44.0020 C.3    13  SER13       0.1889
      3  C         27.8780   29.8470   44.6410 C.2    13  SER13       0.2288
      4  O         28.6390   29.0850   45.2450 O.2    13  SER13      -0.2866
      5  CB        27.7360   32.3090   44.7350 C.3    13  SER13       0.2089
      6  OG        28.0500   33.5320   44.0970 O.3    13  SER13      -0.2183
      7  N         36.3240   32.4560   53.6670 N.3    28  TYR28      -0.1241
      8  CA        35.6840   33.1350   52.5640 C.3    28  TYR28       0.1605
      9  C         36.4270   34.3970   52.2790 C.2    28  TYR28       0.2264
     10  O         36.5120   35.2380   53.1750 O.2    28  TYR28      -0.2867
     11  CB        34.2340   33.5060   52.9280 C.3    28  TYR28       0.0534
     12  CG        33.4350   34.1330   51.8010 C.ar   28  TYR28      -0.0201
     13  CD1       33.5190   35.4990   51.5280 C.ar   28  TYR28      -0.0009
     14  CD2       32.5810   33.3510   51.0230 C.ar   28  TYR28      -0.0009
     15  CE1       32.7840   36.0780   50.4920 C.ar   28  TYR28       0.0417
     16  CE2       31.8260   33.9130   49.9930 C.ar   28  TYR28       0.0417
     17  CZ        31.9370   35.2780   49.7240 C.ar   28  TYR28       0.1957
     18  OH        31.2020   35.8310   48.7070 O.3    28  TYR28      -0.2866
     19  N         36.2660   37.4850   50.3050 N.3    30  ALA30      -0.1231
     20  CA        35.3070   38.4080   49.7520 C.3    30  ALA30       0.1694
     21  C         35.9500   39.7030   49.3120 C.2    30  ALA30       0.2593
     22  O         36.0560   40.6570   50.0790 O.2    30  ALA30      -0.2718
     23  CB        34.3310   38.7070   50.8790 C.3    30  ALA30       0.0304
     24  N         36.3760   39.7390   48.0550 N.am   31  THR31      -0.1939
     25  CA        37.0740   40.8700   47.4630 C.3    31  THR31       0.2028
     26  C         36.4020   42.1980   47.2410 C.2    31  THR31       0.2642
     27  O         37.1260   43.1830   47.1430 O.2    31  THR31      -0.2714
     28  CB        37.7920   40.5060   46.1760 C.3    31  THR31       0.1808
     29  OG1       36.7870   40.3100   45.2030 O.3    31  THR31      -0.2208
     30  CG2       38.6580   39.2720   46.3850 C.3    31  THR31       0.0379
     31  N         35.0840   42.2750   47.1510 N.am   32  SER32      -0.1949
     32  CA        34.4820   43.5820   46.8820 C.3    32  SER32       0.1924
     33  C         34.7590   44.6790   47.9030 C.2    32  SER32       0.2314
     34  O         34.7220   44.4710   49.1120 O.2    32  SER32      -0.2863
     35  CB        33.0000   43.4920   46.6300 C.3    32  SER32       0.2116
     36  OG        32.6310   42.2330   47.1100 O.3    32  SER32      -0.2180
     37  N         33.2410   47.9330   49.4400 N.3    34  ILE34      -0.1245
     38  CA        31.9020   48.4450   49.6400 C.3    34  ILE34       0.1561
     39  C         31.8090   49.9190   49.2640 C.2    34  ILE34       0.2260
     40  O         32.1240   50.8110   50.0530 O.2    34  ILE34      -0.2867
     41  CB        31.3680   48.1470   51.0400 C.3    34  ILE34       0.0252
     42  CG1       31.5410   46.6590   51.3340 C.3    34  ILE34       0.0019
     43  CG2       29.8910   48.5210   51.1270 C.3    34  ILE34       0.0019
     44  CD1       32.6960   46.3670   52.2840 C.3    34  ILE34       0.0001
     45  N         24.2910   38.4630   52.1340 N.3    37  HIS37      -0.1226
     46  CA        25.1440   37.3170   51.9430 C.3    37  HIS37       0.1752
     47  C         25.8710   37.0650   53.2650 C.2    37  HIS37       0.2595
     48  O         25.9750   35.9650   53.8310 O.2    37  HIS37      -0.2718
     49  CB        26.0890   37.5720   50.7800 C.3    37  HIS37       0.0759
     50  CG        25.3620   37.7450   49.4510 C.ar   37  HIS37       0.0818
     51  ND1       25.1620   36.6780   48.5810 N.ar   37  HIS37      -0.2268
     52  CD2       24.8010   38.8310   48.8600 C.ar   37  HIS37       0.1154
     53  CE1       24.5090   37.1290   47.5250 C.ar   37  HIS37       0.1986
     54  NE2       24.2870   38.4110   47.6760 N.ar   37  HIS37      -0.2212
     55  N         26.3830   38.1400   53.8540 N.am   38  LYS38      -0.1980
     56  CA        27.0730   38.0110   55.1270 C.3    38  LYS38       0.1596
     57  C         26.2370   37.3190   56.2100 C.2    38  LYS38       0.2287
     58  O         26.7510   36.7670   57.1820 O.2    38  LYS38      -0.2864
     59  CB        27.5940   39.3430   55.6060 C.3    38  LYS38       0.0298
     60  CG        29.1050   39.4020   55.5230 C.3    38  LYS38       0.0038
     61  CD        29.7170   40.3300   56.5560 C.3    38  LYS38       0.0206
     62  CE        30.5760   39.6130   57.5890 C.3    38  LYS38       0.1093
     63  NZ        30.0820   38.2740   57.9460 N.3    38  LYS38      -0.1314
     64  N         25.7470   33.2780   55.2730 N.3    41  ARG41      -0.1245
     65  CA        27.0150   32.6220   55.5030 C.3    41  ARG41       0.1563
     66  C         27.0090   31.8760   56.8300 C.2    41  ARG41       0.2260
     67  O         26.6690   32.4870   57.8390 O.2    41  ARG41      -0.2867
     68  CB        28.1200   33.6780   55.4910 C.3    41  ARG41       0.0307
     69  CG        29.5380   33.1150   55.5560 C.3    41  ARG41       0.0489
     70  CD        30.4310   33.6050   54.4180 C.3    41  ARG41       0.2205
     71  NE        29.6790   34.3470   53.4150 N.pl3  41  ARG41      -0.0865
     72  CZ        29.8010   35.6550   53.2200 C.cat  41  ARG41       0.5346
     73  NH1       30.6410   36.4190   53.9170 N.pl3  41  ARG41       0.1354
     74  NH2       29.0490   36.2190   52.2830 N.pl3  41  ARG41       0.1354
     75  N         35.5660   35.0440   57.5970 N.3    47  THR47      -0.1218
     76  CA        35.5010   35.9220   56.4690 C.3    47  THR47       0.1862
     77  C         36.6970   36.8220   56.5190 C.2    47  THR47       0.2287
     78  O         37.0170   37.3540   57.5870 O.2    47  THR47      -0.2866
     79  CB        34.1720   36.7110   56.4620 C.3    47  THR47       0.1770
     80  OG1       33.0700   35.8260   56.3700 O.3    47  THR47      -0.2211
     81  CG2       34.1470   37.6970   55.3000 C.3    47  THR47       0.0375
     82  N         35.7480   35.2510   46.5020 N.3    68  GLU68      -0.1231
     83  CA        34.6860   35.8180   45.7390 C.3    68  GLU68       0.1699
     84  C         34.8050   37.3140   45.6410 C.2    68  GLU68       0.2592
     85  O         34.6330   37.9890   46.6490 O.2    68  GLU68      -0.2718
     86  CB        33.3840   35.4700   46.4760 C.3    68  GLU68       0.0402
     87  CG        32.2350   35.1360   45.5170 C.3    68  GLU68       0.1161
     88  CD        31.3440   34.0190   45.9820 C.2    68  GLU68       0.3649
     89  OE1       30.8740   33.2000   45.2150 O.co2  68  GLU68      -0.2457
     90  OE2       31.1260   34.0280   47.2760 O.co2  68  GLU68      -0.2457
     91  N         35.0790   37.8450   44.4320 N.am   69  CYS69      -0.1970
     92  CA        35.2820   37.1030   43.1740 C.3    69  CYS69       0.1712
     93  C         36.5540   37.5830   42.4590 C.2    69  CYS69       0.2296
     94  O         37.1260   38.5960   42.8520 O.2    69  CYS69      -0.2864
     95  CB        34.0570   37.2940   42.2500 C.3    69  CYS69       0.0983
     96  SG        33.5840   39.0430   42.1110 S.3    69  CYS69      -0.0798
     97  N         36.2450   41.3690   40.5240 N.3    72  THR72      -0.1218
     98  CA        36.2140   42.4200   41.5290 C.3    72  THR72       0.1862
     99  C         37.6140   42.7780   41.9670 C.2    72  THR72       0.2287
    100  O         38.0160   43.9380   42.0380 O.2    72  THR72      -0.2866
    101  CB        35.3400   41.9270   42.7050 C.3    72  THR72       0.1770
    102  OG1       33.9790   42.1520   42.4100 O.3    72  THR72      -0.2211
    103  CG2       35.6980   42.6030   44.0170 C.3    72  THR72       0.0375
@<TRIPOS>BOND
     1    97    98    1
     2    98    99    1
     3    98   101    1
     4    99   100    2
     5    96    95    1
     6    95    92    1
     7   102   101    1
     8    93    94    2
     9    93    92    1
    10     1     2    1
    11   101   103    1
    12    92    91    1
    13     2     3    1
    14     2     5    1
    15     6     5    1
    16    91    84   am
    17     3     4    2
    18    29    28    1
    19    89    88   ar
    20    87    88    1
    21    87    86    1
    22    84    83    1
    23    84    85    2
    24    83    86    1
    25    83    82    1
    26    88    90   ar
    27    28    30    1
    28    28    25    1
    29    35    32    1
    30    35    36    1
    31    32    31    1
    32    32    33    1
    33    27    26    2
    34    31    26   am
    35    26    25    1
    36    25    24    1
    37    53    54   ar
    38    53    51   ar
    39    54    52   ar
    40    33    34    2
    41    24    21   am
    42    51    50   ar
    43    18    17    1
    44    52    50   ar
    45    39    38    1
    46    39    40    2
    47    21    20    1
    48    21    22    2
    49    37    38    1
    50    50    49    1
    51    38    41    1
    52    17    16   ar
    53    17    15   ar
    54    20    19    1
    55    20    23    1
    56    16    14   ar
    57    15    13   ar
    58    49    46    1
    59    14    12   ar
    60    41    43    1
    61    41    42    1
    62    42    44    1
    63    13    12   ar
    64    12    11    1
    65    46    45    1
    66    46    47    1
    67     9     8    1
    68     9    10    2
    69    74    72    1
    70     8    11    1
    71     8     7    1
    72    72    71    2
    73    72    73    1
    74    47    48    2
    75    47    55   am
    76    71    70    1
    77    55    56    1
    78    70    69    1
    79    56    59    1
    80    56    57    1
    81    64    65    1
    82    81    79    1
    83    68    65    1
    84    68    69    1
    85    65    66    1
    86    60    59    1
    87    60    61    1
    88    57    58    2
    89    80    79    1
    90    79    76    1
    91    76    77    1
    92    76    75    1
    93    77    78    2
    94    61    62    1
    95    66    67    2
    96    62    63    1
