@<TRIPOS>MOLECULE
tmp/1c9kC00.pdb
 75 71 0 0 0
SMALL
GASTEIGER

@<TRIPOS>ATOM
      1  N         26.7220   36.8590   35.4130 N.3     8  ALA8       -0.1231
      2  CA        26.0870   37.4600   36.5780 C.3     8  ALA8        0.1694
      3  C         24.7810   36.7270   36.8630 C.2     8  ALA8        0.2592
      4  O         24.0050   36.4010   35.9660 O.2     8  ALA8       -0.2718
      5  CB        25.7830   38.9280   36.3280 C.3     8  ALA8        0.0304
      6  N         24.5350   36.4740   38.1300 N.am    9  ARG9       -0.1966
      7  CA        23.3420   35.7700   38.5300 C.3     9  ARG9        0.1729
      8  C         23.1770   34.4390   37.7880 C.2     9  ARG9        0.2617
      9  O         22.0640   34.0390   37.4260 O.2     9  ARG9       -0.2715
     10  CB        22.0970   36.6480   38.6780 C.3     9  ARG9        0.0348
     11  CG        22.2550   37.7420   39.7420 C.3     9  ARG9        0.0492
     12  CD        22.7690   37.2290   41.0880 C.3     9  ARG9        0.2205
     13  NE        22.6380   35.7780   41.2580 N.pl3   9  ARG9       -0.0865
     14  CZ        22.8700   35.1050   42.3930 C.cat   9  ARG9        0.5346
     15  NH1       22.7320   33.7820   42.4650 N.pl3   9  ARG9        0.1354
     16  NH2       23.2510   35.7660   43.4830 N.pl3   9  ARG9        0.1354
     17  N         24.3410   33.7610   37.6050 N.am   10  SER10      -0.1936
     18  CA        24.4450   32.4530   36.9410 C.3    10  SER10       0.2055
     19  C         24.3170   31.2740   37.8760 C.2    10  SER10       0.2644
     20  O         24.0810   30.1500   37.4230 O.2    10  SER10      -0.2714
     21  CB        25.7590   32.2430   36.2170 C.3    10  SER10       0.2130
     22  OG        26.8480   32.4610   37.0980 O.3    10  SER10      -0.2179
     23  N         24.5070   31.5600   39.1690 N.am   11  GLY11      -0.1939
     24  CA        24.4650   30.5690   40.2270 C.3    11  GLY11       0.2014
     25  C         25.8580   29.9790   40.4190 C.2    11  GLY11       0.2639
     26  O         26.0360   28.8100   40.7780 O.2    11  GLY11      -0.2714
     27  N         26.8660   30.7940   40.1510 N.am   12  LYS12      -0.1963
     28  CA        28.1950   30.2720   40.3140 C.3    12  LYS12       0.1728
     29  C         28.5900   30.1940   41.7780 C.2    12  LYS12       0.2616
     30  O         29.3210   29.2970   42.1960 O.2    12  LYS12      -0.2715
     31  CB        29.2350   30.8340   39.3570 C.3    12  LYS12       0.0311
     32  CG        29.1110   32.3290   39.1560 C.3    12  LYS12       0.0038
     33  CD        30.2210   32.9310   38.3170 C.3    12  LYS12       0.0206
     34  CE        30.4860   34.3660   38.7190 C.3    12  LYS12       0.1093
     35  NZ        29.2620   35.1740   38.7500 N.3    12  LYS12      -0.1314
     36  N         28.0690   31.1250   42.5740 N.am   13  SER13      -0.1950
     37  CA        28.3620   31.1310   44.0020 C.3    13  SER13       0.1924
     38  C         27.8780   29.8470   44.6410 C.2    13  SER13       0.2314
     39  O         28.6390   29.0850   45.2450 O.2    13  SER13      -0.2863
     40  CB        27.7360   32.3090   44.7350 C.3    13  SER13       0.2116
     41  OG        28.0500   33.5320   44.0970 O.3    13  SER13      -0.2180
     42  N         24.2910   38.4630   52.1340 N.3    37  HIS37      -0.1241
     43  CA        25.1440   37.3170   51.9430 C.3    37  HIS37       0.1621
     44  C         25.8710   37.0650   53.2650 C.2    37  HIS37       0.2264
     45  O         25.9750   35.9650   53.8310 O.2    37  HIS37      -0.2867
     46  CB        26.0890   37.5720   50.7800 C.3    37  HIS37       0.0745
     47  CG        25.3620   37.7450   49.4510 C.ar   37  HIS37       0.0817
     48  ND1       25.1620   36.6780   48.5810 N.ar   37  HIS37      -0.2268
     49  CD2       24.8010   38.8310   48.8600 C.ar   37  HIS37       0.1154
     50  CE1       24.5090   37.1290   47.5250 C.ar   37  HIS37       0.1986
     51  NE2       24.2870   38.4110   47.6760 N.ar   37  HIS37      -0.2212
     52  N         35.7480   35.2510   46.5020 N.3    68  GLU68      -0.1245
     53  CA        34.6860   35.8180   45.7390 C.3    68  GLU68       0.1567
     54  C         34.8050   37.3140   45.6410 C.2    68  GLU68       0.2260
     55  O         34.6330   37.9890   46.6490 O.2    68  GLU68      -0.2867
     56  CB        33.3840   35.4700   46.4760 C.3    68  GLU68       0.0388
     57  CG        32.2350   35.1360   45.5170 C.3    68  GLU68       0.1160
     58  CD        31.3440   34.0190   45.9820 C.2    68  GLU68       0.3649
     59  OE1       30.8740   33.2000   45.2150 O.co2  68  GLU68      -0.2457
     60  OE2       31.1260   34.0280   47.2760 O.co2  68  GLU68      -0.2457
     61  N         36.1380   32.1640   42.3330 N.3   117  VAL117     -0.1245
     62  CA        34.9740   32.5090   41.5010 C.3   117  VAL117      0.1561
     63  C         35.1890   33.7310   40.6390 C.2   117  VAL117      0.2260
     64  O         35.5970   34.8120   41.0840 O.2   117  VAL117     -0.2867
     65  CB        33.6640   32.6620   42.2810 C.3   117  VAL117      0.0252
     66  CG1       32.5850   33.3810   41.4710 C.3   117  VAL117      0.0019
     67  CG2       33.1370   31.3130   42.7430 C.3   117  VAL117      0.0019
     68  N         33.8160   35.6840   36.7250 N.3   119  ASN119     -0.1240
     69  CA        32.7370   35.9130   35.7790 C.3   119  ASN119      0.1653
     70  C         33.1450   35.9470   34.3100 C.2   119  ASN119      0.2266
     71  O         34.2750   36.3080   33.9920 O.2   119  ASN119     -0.2867
     72  CB        32.2250   37.3290   36.0490 C.3   119  ASN119      0.1155
     73  CG        31.4910   37.3970   37.3560 C.2   119  ASN119      0.2627
     74  OD1       32.0780   37.5650   38.4400 O.2   119  ASN119     -0.2716
     75  ND2       30.1800   37.2560   37.2440 N.am  119  ASN119     -0.0877
@<TRIPOS>BOND
     1    71    70    2
     2    70    69    1
     3     1     2    1
     4    69    72    1
     5    69    68    1
     6     4     3    2
     7    72    73    1
     8    21    18    1
     9    21    22    1
    10     5     2    1
    11     2     3    1
    12     3     6   am
    13    18    17    1
    14    18    19    1
    15    75    73   am
    16    73    74    2
    17    20    19    2
    18     9     8    2
    19    17     8   am
    20     8     7    1
    21    19    23   am
    22     6     7    1
    23    33    34    1
    24    33    32    1
    25     7    10    1
    26    10    11    1
    27    34    35    1
    28    32    31    1
    29    23    24    1
    30    31    28    1
    31    11    12    1
    32    27    28    1
    33    27    25   am
    34    24    25    1
    35    28    29    1
    36    25    26    2
    37    63    64    2
    38    63    62    1
    39    12    13    1
    40    13    14    2
    41    66    65    1
    42    62    65    1
    43    62    61    1
    44    29    30    2
    45    29    36   am
    46    65    67    1
    47    14    15    1
    48    14    16    1
    49    36    37    1
    50    37    38    1
    51    37    40    1
    52    41    40    1
    53    38    39    2
    54    59    58   ar
    55    57    58    1
    56    57    56    1
    57    54    53    1
    58    54    55    2
    59    53    56    1
    60    53    52    1
    61    58    60   ar
    62    50    51   ar
    63    50    48   ar
    64    51    49   ar
    65    48    47   ar
    66    49    47   ar
    67    47    46    1
    68    46    43    1
    69    43    42    1
    70    43    44    1
    71    44    45    2
