@<TRIPOS>MOLECULE
tmp/1c9kA00.pdb
 142 132 0 0 0
SMALL
GASTEIGER

@<TRIPOS>ATOM
      1  N         38.6880   37.7470   24.1480 N.3     9  ARG9       -0.1245
      2  CA        39.7760   37.3640   24.9960 C.3     9  ARG9        0.1563
      3  C         39.5200   36.1250   25.8160 C.2     9  ARG9        0.2260
      4  O         39.8590   36.0300   26.9910 O.2     9  ARG9       -0.2867
      5  CB        40.2430   38.5310   25.8560 C.3     9  ARG9        0.0307
      6  CG        41.1690   39.5130   25.1350 C.3     9  ARG9        0.0489
      7  CD        42.5750   38.9530   24.8960 C.3     9  ARG9        0.2205
      8  NE        42.5540   37.5040   24.7050 N.pl3   9  ARG9       -0.0865
      9  CZ        43.5740   36.6500   24.6310 C.cat   9  ARG9        0.5346
     10  NH1       44.8610   37.0010   24.7310 N.pl3   9  ARG9        0.1354
     11  NH2       43.2680   35.3740   24.4270 N.pl3   9  ARG9        0.1354
     12  N         41.7040   32.3600   19.7020 N.3    13  SER13      -0.1217
     13  CA        42.7290   32.5370   18.7090 C.3    13  SER13       0.1889
     14  C         43.8110   31.5010   18.9290 C.2    13  SER13       0.2288
     15  O         44.2060   30.8080   17.9920 O.2    13  SER13      -0.2866
     16  CB        43.2990   33.9560   18.7150 C.3    13  SER13       0.2089
     17  OG        42.2790   34.9180   18.5170 O.3    13  SER13      -0.2183
     18  N         46.8490   33.4930    6.4020 N.3    28  TYR28      -0.1241
     19  CA        46.2020   34.2340    7.4570 C.3    28  TYR28       0.1605
     20  C         45.4090   35.3960    6.8780 C.2    28  TYR28       0.2264
     21  O         45.9640   36.3870    6.3950 O.2    28  TYR28      -0.2867
     22  CB        47.2260   34.7330    8.4990 C.3    28  TYR28       0.0534
     23  CG        46.5540   35.4810    9.6300 C.ar   28  TYR28      -0.0201
     24  CD1       46.2580   36.8400    9.5090 C.ar   28  TYR28      -0.0009
     25  CD2       46.1750   34.8200   10.7970 C.ar   28  TYR28      -0.0009
     26  CE1       45.6120   37.5350   10.5290 C.ar   28  TYR28       0.0417
     27  CE2       45.5470   35.5040   11.8400 C.ar   28  TYR28       0.0417
     28  CZ        45.2660   36.8640   11.7030 C.ar   28  TYR28       0.1957
     29  OH        44.6570   37.5540   12.7240 O.3    28  TYR28      -0.2866
     30  N         43.2260   38.3630    7.6560 N.3    30  ALA30      -0.1231
     31  CA        42.9280   39.4120    8.6240 C.3    30  ALA30       0.1694
     32  C         41.8900   40.3620    8.0910 C.2    30  ALA30       0.2593
     33  O         42.1730   41.1800    7.2210 O.2    30  ALA30      -0.2718
     34  CB        44.1890   40.2160    8.9100 C.3    30  ALA30       0.0304
     35  N         40.6960   40.2580    8.6430 N.am   31  THR31      -0.1939
     36  CA        39.5830   41.0840    8.2330 C.3    31  THR31       0.2028
     37  C         39.5750   42.4150    8.8950 C.2    31  THR31       0.2642
     38  O         38.7460   43.2520    8.5530 O.2    31  THR31      -0.2714
     39  CB        38.2520   40.4600    8.6380 C.3    31  THR31       0.1808
     40  OG1       38.2710   40.2480   10.0530 O.3    31  THR31      -0.2208
     41  CG2       38.0050   39.1960    7.8250 C.3    31  THR31       0.0379
     42  N         40.4510   42.6160    9.8650 N.am   32  SER32      -0.1949
     43  CA        40.4200   43.9000   10.5220 C.3    32  SER32       0.1924
     44  C         40.9480   45.0710    9.7310 C.2    32  SER32       0.2314
     45  O         42.0490   45.0570    9.1870 O.2    32  SER32      -0.2863
     46  CB        40.6850   43.9600   12.0300 C.3    32  SER32       0.2116
     47  OG        41.8130   43.1930   12.3980 O.3    32  SER32      -0.2180
     48  N         42.3720   48.6480    9.4790 N.3    34  ILE34      -0.1245
     49  CA        43.2570   49.4080   10.3470 C.3    34  ILE34       0.1561
     50  C         42.8800   50.8850   10.4460 C.2    34  ILE34       0.2260
     51  O         42.2220   51.4570    9.5800 O.2    34  ILE34      -0.2867
     52  CB        44.7460   49.1680   10.0890 C.3    34  ILE34       0.0252
     53  CG1       45.1140   47.7480   10.5050 C.3    34  ILE34       0.0019
     54  CG2       45.5840   50.1470   10.9030 C.3    34  ILE34       0.0019
     55  CD1       45.7800   46.9390    9.3970 C.3    34  ILE34       0.0001
     56  N         48.3750   47.6270   17.5970 N.3    36  ARG36      -0.1231
     57  CA        47.8500   46.4490   18.2490 C.3    36  ARG36       0.1694
     58  C         48.0390   45.3030   17.2770 C.2    36  ARG36       0.2591
     59  O         48.2740   44.1480   17.6370 O.2    36  ARG36      -0.2718
     60  CB        46.3540   46.6370   18.5100 C.3    36  ARG36       0.0321
     61  CG        46.0940   47.8150   19.4300 C.3    36  ARG36       0.0489
     62  CD        47.3690   48.1530   20.1870 C.3    36  ARG36       0.2205
     63  NE        47.2810   49.3640   20.9890 N.pl3  36  ARG36      -0.0865
     64  CZ        48.2320   50.2980   21.0100 C.cat  36  ARG36       0.5346
     65  NH1       48.1310   51.3970   21.7580 N.pl3  36  ARG36       0.1354
     66  NH2       49.3220   50.1210   20.2650 N.pl3  36  ARG36       0.1354
     67  N         47.9310   45.7030   16.0120 N.am   37  ILE37      -0.1980
     68  CA        48.0600   44.8460   14.8610 C.3    37  ILE37       0.1595
     69  C         49.5240   44.5590   14.5370 C.2    37  ILE37       0.2287
     70  O         49.8880   43.4670   14.0920 O.2    37  ILE37      -0.2864
     71  CB        47.3560   45.5230   13.6970 C.3    37  ILE37       0.0276
     72  CG1       45.9490   45.9600   14.1180 C.3    37  ILE37       0.0022
     73  CG2       47.3220   44.6070   12.4810 C.3    37  ILE37       0.0022
     74  CD1       44.8470   44.9380   13.8500 C.3    37  ILE37       0.0001
     75  N         50.5790   41.4780   16.2920 N.3    40  HIS40      -0.1226
     76  CA        49.9120   40.2590   15.8770 C.3    40  HIS40       0.1752
     77  C         50.8080   39.5970   14.8610 C.2    40  HIS40       0.2595
     78  O         51.1670   38.4130   14.9440 O.2    40  HIS40      -0.2718
     79  CB        48.5440   40.5680   15.2890 C.3    40  HIS40       0.0759
     80  CG        47.5050   40.8430   16.3340 C.ar   40  HIS40       0.0818
     81  ND1       46.2540   41.2830   16.0070 N.ar   40  HIS40      -0.2268
     82  CD2       47.5810   40.7180   17.6910 C.ar   40  HIS40       0.1154
     83  CE1       45.5690   41.4240   17.1130 C.ar   40  HIS40       0.1986
     84  NE2       46.3430   41.1090   18.1330 N.ar   40  HIS40      -0.2212
     85  N         51.1700   40.4660   13.9170 N.am   41  LYS41      -0.1980
     86  CA        52.0570   40.1070   12.8510 C.3    41  LYS41       0.1596
     87  C         53.2970   39.5580   13.4720 C.2    41  LYS41       0.2287
     88  O         53.6640   38.4220   13.2150 O.2    41  LYS41      -0.2864
     89  CB        52.4770   41.2880   12.0060 C.3    41  LYS41       0.0298
     90  CG        51.2990   41.8730   11.2670 C.3    41  LYS41       0.0038
     91  CD        51.3440   43.3840   11.1590 C.3    41  LYS41       0.0206
     92  CE        51.0370   43.8680    9.7470 C.3    41  LYS41       0.1093
     93  NZ        49.6640   44.3630    9.5800 N.3    41  LYS41      -0.1314
     94  N         53.6180   36.1510   14.4060 N.3    44  ARG44      -0.1245
     95  CA        53.1150   35.3070   13.3430 C.3    44  ARG44       0.1563
     96  C         54.2740   34.6500   12.5970 C.2    44  ARG44       0.2260
     97  O         55.1660   35.3250   12.0860 O.2    44  ARG44      -0.2867
     98  CB        52.1900   36.0760   12.4040 C.3    44  ARG44       0.0307
     99  CG        51.0710   35.2110   11.8290 C.3    44  ARG44       0.0489
    100  CD        49.9490   36.0020   11.1550 C.3    44  ARG44       0.2205
    101  NE        49.3030   36.9480   12.0580 N.pl3  44  ARG44      -0.0865
    102  CZ        49.1670   38.2340   11.7720 C.cat  44  ARG44       0.5346
    103  NH1       49.6180   38.7340   10.6260 N.pl3  44  ARG44       0.1354
    104  NH2       48.5800   39.0460   12.6460 N.pl3  44  ARG44       0.1354
    105  N         49.9210   36.6200    5.0780 N.3    50  THR50      -0.1218
    106  CA        48.7210   37.3340    5.5010 C.3    50  THR50       0.1862
    107  C         47.9800   38.0630    4.3720 C.2    50  THR50       0.2287
    108  O         48.5460   38.8170    3.5800 O.2    50  THR50      -0.2866
    109  CB        49.0900   38.3240    6.6410 C.3    50  THR50       0.1770
    110  OG1       49.4450   37.6190    7.8170 O.3    50  THR50      -0.2211
    111  CG2       47.9360   39.2740    6.9310 C.3    50  THR50       0.0375
    112  N         45.0310   40.7020    3.8250 N.3    52  GLU52      -0.1245
    113  CA        44.1250   41.6850    4.4070 C.3    52  GLU52       0.1567
    114  C         42.8830   41.9160    3.5660 C.2    52  GLU52       0.2260
    115  O         42.8540   42.8370    2.7510 O.2    52  GLU52      -0.2867
    116  CB        44.7790   43.0510    4.7210 C.3    52  GLU52       0.0388
    117  CG        46.0110   42.9460    5.6390 C.3    52  GLU52       0.1160
    118  CD        46.3270   44.2020    6.4140 C.2    52  GLU52       0.3649
    119  OE1       46.8530   44.1920    7.5100 O.co2  52  GLU52      -0.2457
    120  OE2       45.9880   45.3020    5.7850 O.co2  52  GLU52      -0.2457
    121  N         40.3860   35.3690   10.4600 N.3    74  GLU74      -0.1231
    122  CA        40.1940   36.1060   11.6980 C.3    74  GLU74       0.1699
    123  C         39.8980   37.5790   11.4800 C.2    74  GLU74       0.2592
    124  O         40.7750   38.3460   11.0820 O.2    74  GLU74      -0.2718
    125  CB        41.4870   35.9520   12.5380 C.3    74  GLU74       0.0402
    126  CG        41.2980   35.9300   14.0710 C.3    74  GLU74       0.1161
    127  CD        42.5460   35.5430   14.8400 C.2    74  GLU74       0.3649
    128  OE1       42.7640   34.4150   15.2370 O.co2  74  GLU74      -0.2457
    129  OE2       43.3660   36.5450   15.0360 O.co2  74  GLU74      -0.2457
    130  N         38.6590   37.9850   11.7550 N.am   75  CYS75      -0.1970
    131  CA        37.6180   37.1120   12.2410 C.3    75  CYS75       0.1712
    132  C         36.3120   37.4920   11.6000 C.2    75  CYS75       0.2296
    133  O         36.1510   38.5870   11.0580 O.2    75  CYS75      -0.2864
    134  CB        37.4840   37.2090   13.7760 C.3    75  CYS75       0.0983
    135  SG        37.0180   38.8770   14.3160 S.3    75  CYS75      -0.0798
    136  N         34.1800   40.8900   12.6170 N.3    78  THR78      -0.1218
    137  CA        34.8570   42.0370   12.0960 C.3    78  THR78       0.1862
    138  C         34.3730   42.2230   10.6750 C.2    78  THR78       0.2287
    139  O         33.9600   43.3030   10.2390 O.2    78  THR78      -0.2866
    140  CB        36.3550   41.6580   11.9720 C.3    78  THR78       0.1770
    141  OG1       36.9900   41.6490   13.2300 O.3    78  THR78      -0.2211
    142  CG2       37.0900   42.5960   11.0260 C.3    78  THR78       0.0375
@<TRIPOS>BOND
     1   115   114    2
     2   114   113    1
     3   108   107    2
     4   112   113    1
     5   107   106    1
     6   113   116    1
     7   116   117    1
     8   105   106    1
     9   106   109    1
    10   117   118    1
    11   120   118   ar
    12    21    20    2
    13    18    19    1
    14   118   119   ar
    15   109   111    1
    16   109   110    1
    17    20    19    1
    18    33    32    2
    19    19    22    1
    20    30    31    1
    21    41    39    1
    22    32    31    1
    23    32    35   am
    24    36    39    1
    25    36    35    1
    26    36    37    1
    27    22    23    1
    28    38    37    2
    29    31    34    1
    30    39    40    1
    31    37    42   am
    32    45    44    2
    33    55    53    1
    34    48    49    1
    35    24    23   ar
    36    24    26   ar
    37    93    92    1
    38    51    50    2
    39    23    25   ar
    40    44    43    1
    41    92    91    1
    42    42    43    1
    43    52    49    1
    44    52    53    1
    45    52    54    1
    46   139   138    2
    47    49    50    1
    48   121   122    1
    49    43    46    1
    50    26    28   ar
    51   103   102    1
    52   138   137    1
    53    25    27   ar
    54   142   140    1
    55   133   132    2
    56   124   123    2
    57   100    99    1
    58   100   101    1
    59    91    90    1
    60    90    89    1
    61   123   122    1
    62   123   130   am
    63   132   131    1
    64   122   125    1
    65    28    27   ar
    66    28    29    1
    67   130   131    1
    68   102   101    2
    69   102   104    1
    70    99    98    1
    71   140   137    1
    72   140   141    1
    73    89    86    1
    74    46    47    1
    75    97    96    2
    76   137   136    1
    77   131   134    1
    78    98    95    1
    79    73    71    1
    80   125   126    1
    81    96    95    1
    82    86    87    1
    83    86    85    1
    84    88    87    2
    85    95    94    1
    86    71    72    1
    87    71    68    1
    88   134   135    1
    89    74    72    1
    90    85    77   am
    91   126   127    1
    92    70    69    2
    93    69    68    1
    94   127   129   ar
    95   127   128   ar
    96    68    67    1
    97    77    78    2
    98    77    76    1
    99    79    76    1
   100    79    80    1
   101    76    75    1
   102    81    80   ar
   103    81    83   ar
   104    67    58   am
   105    80    82   ar
   106    83    84   ar
   107    58    59    2
   108    58    57    1
   109    56    57    1
   110    82    84   ar
   111    15    14    2
   112    57    60    1
   113    60    61    1
   114    17    16    1
   115    13    16    1
   116    13    14    1
   117    13    12    1
   118    61    62    1
   119    62    63    1
   120    66    64    1
   121    63    64    2
   122    64    65    1
   123     1     2    1
   124    11     9    1
   125     9     8    2
   126     9    10    1
   127     8     7    1
   128     7     6    1
   129     2     3    1
   130     2     5    1
   131     6     5    1
   132     3     4    2
