@<TRIPOS>MOLECULE
tmp/1c9lA00.pdb
 144 134 0 0 0
SMALL
GASTEIGER

@<TRIPOS>ATOM
      1  N         30.4540  -12.7130   -8.8940 N.3    45  GLN45      -0.1245
      2  CA        29.6230  -13.4010   -7.9170 C.3    45  GLN45       0.1566
      3  C         29.3610  -12.6580   -6.6010 C.2    45  GLN45       0.2260
      4  O         30.2840  -12.3020   -5.8720 O.2    45  GLN45      -0.2867
      5  CB        30.2210  -14.7810   -7.6290 C.3    45  GLN45       0.0367
      6  CG        29.2750  -15.7240   -6.8990 C.3    45  GLN45       0.0905
      7  CD        27.9380  -15.8760   -7.6120 C.2    45  GLN45       0.2608
      8  OE1       27.2430  -14.8900   -7.8620 O.2    45  GLN45      -0.2717
      9  NE2       27.5700  -17.1160   -7.9410 N.am   45  GLN45      -0.0878
     10  N         27.3680  -13.6050    0.6460 N.3    48  VAL48      -0.1245
     11  CA        27.2440  -13.0910    2.0050 C.3    48  VAL48       0.1561
     12  C         28.3090  -13.6890    2.8930 C.2    48  VAL48       0.2260
     13  O         28.5810  -14.8900    2.8250 O.2    48  VAL48      -0.2867
     14  CB        25.9190  -13.4570    2.7000 C.3    48  VAL48       0.0252
     15  CG1       24.8650  -12.4220    2.4200 C.3    48  VAL48       0.0019
     16  CG2       25.4830  -14.8280    2.2710 C.3    48  VAL48       0.0019
     17  N         29.0300  -14.4150    6.6220 N.3    50  ILE50      -0.1245
     18  CA        28.4030  -14.4770    7.9410 C.3    50  ILE50       0.1561
     19  C         29.4520  -14.6930    9.0200 C.2    50  ILE50       0.2260
     20  O         30.0840  -15.7510    9.0790 O.2    50  ILE50      -0.2867
     21  CB        27.3790  -15.6260    8.0110 C.3    50  ILE50       0.0252
     22  CG1       26.3090  -15.4210    6.9390 C.3    50  ILE50       0.0019
     23  CG2       26.7310  -15.6720    9.3900 C.3    50  ILE50       0.0019
     24  CD1       25.5340  -16.6600    6.6210 C.3    50  ILE50       0.0001
     25  N         28.8300  -17.5990    1.4180 N.3    62  ARG62      -0.1231
     26  CA        27.8200  -18.3110    0.6350 C.3    62  ARG62       0.1679
     27  C         27.3590  -17.4190   -0.5110 C.2    62  ARG62       0.2434
     28  O         27.2320  -16.2060   -0.3460 O.2    62  ARG62      -0.2733
     29  CB        26.5700  -18.6210    1.4670 C.3    62  ARG62       0.0321
     30  CG        26.7750  -19.3280    2.7840 C.3    62  ARG62       0.0489
     31  CD        26.9100  -20.8150    2.6270 C.3    62  ARG62       0.2205
     32  NE        28.2470  -21.1980    2.1940 N.pl3  62  ARG62      -0.0865
     33  CZ        28.7510  -22.4200    2.3410 C.cat  62  ARG62       0.5346
     34  NH1       28.0230  -23.3760    2.9120 N.pl3  62  ARG62       0.1354
     35  NH2       29.9830  -22.6890    1.9220 N.pl3  62  ARG62       0.1354
     36  N         27.0910  -18.0110   -1.6850 N.am   63  PRO63      -0.2718
     37  CA        26.6340  -17.2080   -2.8230 C.3    63  PRO63       0.1535
     38  C         25.1860  -16.7810   -2.6120 C.2    63  PRO63       0.2598
     39  O         24.3350  -17.6050   -2.2590 O.2    63  PRO63      -0.2715
     40  CB        26.7570  -18.1750   -4.0000 C.3    63  PRO63       0.0310
     41  CG        27.8440  -19.1250   -3.5760 C.3    63  PRO63       0.0237
     42  CD        27.4440  -19.3700   -2.1350 C.3    63  PRO63       0.0939
     43  N         24.9100  -15.4940   -2.8010 N.am   64  ILE64      -0.1964
     44  CA        23.5460  -14.9880   -2.6650 C.3    64  ILE64       0.1727
     45  C         23.2380  -14.0980   -3.8500 C.2    64  ILE64       0.2617
     46  O         24.1070  -13.8080   -4.6730 O.2    64  ILE64      -0.2715
     47  CB        23.3480  -14.1470   -1.3950 C.3    64  ILE64       0.0290
     48  CG1       24.2860  -12.9380   -1.4310 C.3    64  ILE64       0.0022
     49  CG2       23.5570  -15.0060   -0.1670 C.3    64  ILE64       0.0023
     50  CD1       23.7480  -11.7360   -0.7010 C.3    64  ILE64       0.0001
     51  N         21.9920  -13.6600   -3.9300 N.am   65  SER65      -0.1936
     52  CA        21.5590  -12.7940   -5.0110 C.3    65  SER65       0.2055
     53  C         20.4510  -11.9310   -4.4310 C.2    65  SER65       0.2642
     54  O         19.4520  -11.6290   -5.0880 O.2    65  SER65      -0.2714
     55  CB        21.0310  -13.6340   -6.1690 C.3    65  SER65       0.2130
     56  OG        19.9780  -14.4730   -5.7250 O.3    65  SER65      -0.2179
     57  N         20.6300  -11.5590   -3.1710 N.am   66  ALA66      -0.1977
     58  CA        19.6660  -10.7230   -2.4860 C.3    66  ALA66       0.1597
     59  C         20.2770   -9.3260   -2.3910 C.2    66  ALA66       0.2287
     60  O         21.5070   -9.1740   -2.3480 O.2    66  ALA66      -0.2864
     61  CB        19.3840  -11.2880   -1.0910 C.3    66  ALA66       0.0319
     62  N         18.3160  -16.6310    8.3330 N.3    78  ILE78      -0.1245
     63  CA        18.5450  -15.3860    7.6190 C.3    78  ILE78       0.1561
     64  C         17.4020  -14.9370    6.7080 C.2    78  ILE78       0.2260
     65  O         16.7560  -15.7470    6.0290 O.2    78  ILE78      -0.2867
     66  CB        19.8690  -15.5140    6.8200 C.3    78  ILE78       0.0252
     67  CG1       20.4460  -14.1350    6.4820 C.3    78  ILE78       0.0019
     68  CG2       19.6440  -16.3630    5.5660 C.3    78  ILE78       0.0019
     69  CD1       21.8970  -14.2220    5.8980 C.3    78  ILE78       0.0001
     70  N         16.5000  -12.9720    3.4770 N.3    80  LEU80      -0.1231
     71  CA        17.0580  -12.4300    2.2410 C.3    80  LEU80       0.1693
     72  C         15.9720  -11.8690    1.3310 C.2    80  LEU80       0.2592
     73  O         14.8830  -12.4420    1.2020 O.2    80  LEU80      -0.2718
     74  CB        17.8340  -13.5130    1.4880 C.3    80  LEU80       0.0284
     75  CG        19.0030  -14.1450    2.2380 C.3    80  LEU80       0.0019
     76  CD1       19.6380  -15.1940    1.3330 C.3    80  LEU80       0.0001
     77  CD2       20.0140  -13.0630    2.6830 C.3    80  LEU80       0.0001
     78  N         16.2590  -10.7390    0.6990 N.am   81  LYS81      -0.1966
     79  CA        15.2700  -10.1620   -0.1950 C.3    81  LYS81       0.1728
     80  C         15.8680   -9.7040   -1.5070 C.2    81  LYS81       0.2616
     81  O         17.0550   -9.3930   -1.6020 O.2    81  LYS81      -0.2715
     82  CB        14.5330   -8.9870    0.4650 C.3    81  LYS81       0.0311
     83  CG        15.2700   -7.6460    0.5000 C.3    81  LYS81       0.0038
     84  CD        14.4390   -6.6080    1.2820 C.3    81  LYS81       0.0206
     85  CE        15.0600   -5.2330    1.2040 C.3    81  LYS81       0.1093
     86  NZ        15.4960   -4.9100   -0.1940 N.3    81  LYS81      -0.1314
     87  N         15.0170   -9.6940   -2.5220 N.am   82  ALA82      -0.1977
     88  CA        15.3810   -9.2600   -3.8660 C.3    82  ALA82       0.1597
     89  C         14.1050   -8.6130   -4.3990 C.2    82  ALA82       0.2287
     90  O         13.1410   -9.2940   -4.7640 O.2    82  ALA82      -0.2864
     91  CB        15.7950  -10.4500   -4.7170 C.3    82  ALA82       0.0319
     92  N         10.5920   -9.8560   -3.6390 N.3    85  THR85      -0.1218
     93  CA        10.7470  -11.2490   -3.2300 C.3    85  THR85       0.1862
     94  C         11.4730  -11.3730   -1.8970 C.2    85  THR85       0.2287
     95  O         12.6240  -10.9550   -1.7710 O.2    85  THR85      -0.2866
     96  CB        11.5130  -12.0710   -4.2910 C.3    85  THR85       0.1770
     97  OG1       10.7050  -12.1990   -5.4650 O.3    85  THR85      -0.2211
     98  CG2       11.8290  -13.4690   -3.7680 C.3    85  THR85       0.0375
     99  N         12.6070  -14.0920    1.1870 N.3    87  GLN87      -0.1245
    100  CA        12.7650  -15.4900    1.5930 C.3    87  GLN87       0.1566
    101  C         13.5480  -15.6050    2.8940 C.2    87  GLN87       0.2260
    102  O         14.4770  -14.8390    3.1390 O.2    87  GLN87      -0.2867
    103  CB        13.5150  -16.3060    0.5270 C.3    87  GLN87       0.0367
    104  CG        13.0300  -16.1210   -0.8920 C.3    87  GLN87       0.0905
    105  CD        13.7520  -17.0380   -1.8670 C.2    87  GLN87       0.2608
    106  OE1       14.9800  -17.1310   -1.8610 O.2    87  GLN87      -0.2717
    107  NE2       12.9910  -17.7150   -2.7130 N.am   87  GLN87      -0.0878
    108  N         15.6990  -18.3600    5.3080 N.3    89  PHE89      -0.1241
    109  CA        16.3480  -19.6670    5.3980 C.3    89  PHE89       0.1605
    110  C         16.9320  -19.9780    6.7620 C.2    89  PHE89       0.2264
    111  O         17.2950  -19.0750    7.5280 O.2    89  PHE89      -0.2867
    112  CB        17.5030  -19.7640    4.4100 C.3    89  PHE89       0.0534
    113  CG        17.0920  -19.6600    2.9830 C.ar   89  PHE89      -0.0203
    114  CD1       16.8290  -18.4240    2.4150 C.ar   89  PHE89      -0.0042
    115  CD2       17.0260  -20.8030    2.1820 C.ar   89  PHE89      -0.0042
    116  CE1       16.5200  -18.3150    1.0710 C.ar   89  PHE89      -0.0003
    117  CE2       16.7180  -20.7120    0.8470 C.ar   89  PHE89      -0.0003
    118  CZ        16.4650  -19.4600    0.2840 C.ar   89  PHE89      -0.0000
    119  N         19.9910  -21.4150    7.7470 N.3    91  ILE91      -0.1245
    120  CA        21.3070  -21.7990    7.2200 C.3    91  ILE91       0.1561
    121  C         21.7960  -23.2000    7.5760 C.2    91  ILE91       0.2260
    122  O         22.2490  -23.9470    6.7010 O.2    91  ILE91      -0.2867
    123  CB        22.3670  -20.7830    7.6520 C.3    91  ILE91       0.0252
    124  CG1       22.0540  -19.4380    7.0000 C.3    91  ILE91       0.0019
    125  CG2       23.7660  -21.2670    7.2670 C.3    91  ILE91       0.0019
    126  CD1       22.9370  -18.3100    7.4630 C.3    91  ILE91       0.0001
    127  N         19.7130  -25.8850    5.8960 N.3    94  LYS94      -0.1245
    128  CA        19.6260  -25.6320    4.4570 C.3    94  LYS94       0.1561
    129  C         18.2590  -25.6080    3.7860 C.2    94  LYS94       0.2260
    130  O         18.0880  -26.1510    2.6860 O.2    94  LYS94      -0.2867
    131  CB        20.5300  -26.6440    3.7850 C.3    94  LYS94       0.0271
    132  CG        21.9180  -26.6780    4.3930 C.3    94  LYS94       0.0035
    133  CD        22.8000  -27.7140    3.7160 C.3    94  LYS94       0.0206
    134  CE        24.2630  -27.4480    3.9840 C.3    94  LYS94       0.1093
    135  NZ        25.1450  -28.4460    3.3270 N.3    94  LYS94      -0.1314
    136  N         14.3550  -23.4220    3.0670 N.3    96  LYS96      -0.1245
    137  CA        13.5870  -22.2350    3.0040 C.3    96  LYS96       0.1561
    138  C         12.4510  -22.4010    3.9530 C.2    96  LYS96       0.2260
    139  O         11.5970  -23.2580    3.7290 O.2    96  LYS96      -0.2867
    140  CB        13.0660  -22.0160    1.5900 C.3    96  LYS96       0.0271
    141  CG        13.0570  -20.5690    1.1560 C.3    96  LYS96       0.0035
    142  CD        12.1340  -20.3460   -0.0190 C.3    96  LYS96       0.0206
    143  CE        12.5090  -21.2500   -1.1880 C.3    96  LYS96       0.1093
    144  NZ        11.7740  -20.8850   -2.4330 N.3    96  LYS96      -0.1314
@<TRIPOS>BOND
     1     1     2    1
     2     9     7   am
     3     2     5    1
     4     2     3    1
     5     8     7    2
     6     5     6    1
     7     7     6    1
     8     3     4    2
     9    55    56    1
    10    55    52    1
    11    97    96    1
    12    54    53    2
    13    52    53    1
    14    52    51    1
    15    90    89    2
    16    91    88    1
    17    46    45    2
    18    53    57   am
    19    89    88    1
    20    96    98    1
    21    96    93    1
    22    40    41    1
    23    40    37    1
    24    51    45   am
    25    88    87    1
    26    45    44    1
    27    92    93    1
    28    41    42    1
    29    93    94    1
    30    57    58    1
    31    37    38    1
    32    37    36    1
    33    43    44    1
    34    43    38   am
    35   107   105   am
    36    44    47    1
    37    38    39    2
    38    87    80   am
    39    58    59    1
    40    58    61    1
    41   144   143    1
    42    59    60    2
    43    42    36    1
    44    94    95    2
    45   105   106    2
    46   105   104    1
    47    36    27   am
    48    81    80    2
    49    80    79    1
    50    48    47    1
    51    48    50    1
    52    47    49    1
    53   143   142    1
    54   104   103    1
    55    27    28    2
    56    27    26    1
    57    79    82    1
    58    79    78    1
    59    86    85    1
    60   142   141    1
    61   118   117   ar
    62   118   116   ar
    63    82    83    1
    64    83    84    1
    65   103   100    1
    66    26    25    1
    67    26    29    1
    68    10    11    1
    69    78    72   am
    70   117   115   ar
    71   116   114   ar
    72   141   140    1
    73    99   100    1
    74    73    72    2
    75    85    84    1
    76    72    71    1
    77    76    75    1
    78    29    30    1
    79    74    75    1
    80    74    71    1
    81   140   137    1
    82   100   101    1
    83    35    33    1
    84    11    14    1
    85    11    12    1
    86   115   113   ar
    87    32    33    2
    88    32    31    1
    89    75    77    1
    90    71    70    1
    91    16    14    1
    92    33    34    1
    93   114   113   ar
    94    15    14    1
    95    31    30    1
    96   130   129    2
    97    13    12    2
    98   101   102    2
    99   113   112    1
   100   137   136    1
   101   137   138    1
   102   135   134    1
   103   133   134    1
   104   133   132    1
   105   139   138    2
   106   131   132    1
   107   131   128    1
   108   129   128    1
   109   112   109    1
   110   128   127    1
   111   108   109    1
   112   109   110    1
   113    68    66    1
   114    69    67    1
   115    65    64    2
   116    67    66    1
   117    24    22    1
   118    17    18    1
   119   122   121    2
   120    64    63    1
   121   110   111    2
   122    66    63    1
   123    22    21    1
   124   124   126    1
   125   124   123    1
   126   120   121    1
   127   120   123    1
   128   120   119    1
   129   125   123    1
   130    63    62    1
   131    18    21    1
   132    18    19    1
   133    21    23    1
   134    19    20    2
