@<TRIPOS>MOLECULE
tmp/1c9uB00.pdb
 173 164 0 0 0
SMALL
GASTEIGER

@<TRIPOS>ATOM
      1  N        -13.0000   69.6160   31.8430 N.3    30  HIS30      -0.1241
      2  CA       -12.1110   68.4610   31.8170 C.3    30  HIS30       0.1621
      3  C        -12.8120   67.1260   32.0010 C.2    30  HIS30       0.2264
      4  O        -12.7560   66.2800   31.1020 O.2    30  HIS30      -0.2867
      5  CB       -11.0050   68.6210   32.8730 C.3    30  HIS30       0.0745
      6  CG        -9.8710   67.6650   32.6520 C.ar   30  HIS30       0.0817
      7  ND1       -8.9030   67.8870   31.6960 N.ar   30  HIS30      -0.2268
      8  CD2       -9.5520   66.4940   33.2490 C.ar   30  HIS30       0.1154
      9  CE1       -8.0340   66.8910   31.7140 C.ar   30  HIS30       0.1986
     10  NE2       -8.4050   66.0320   32.6470 N.ar   30  HIS30      -0.2212
     11  N        -10.9150   72.7360   34.4490 N.3    45  ARG45      -0.1245
     12  CA        -9.5200   72.5540   34.8180 C.3    45  ARG45       0.1563
     13  C         -8.8050   73.8320   35.2240 C.2    45  ARG45       0.2260
     14  O         -8.1250   73.8420   36.2530 O.2    45  ARG45      -0.2867
     15  CB        -8.7620   71.8520   33.6850 C.3    45  ARG45       0.0307
     16  CG        -7.3510   71.4400   34.0740 C.3    45  ARG45       0.0489
     17  CD        -6.7590   70.4640   33.0720 C.3    45  ARG45       0.2205
     18  NE        -6.8200   70.9500   31.7030 N.pl3  45  ARG45      -0.0865
     19  CZ        -6.1500   71.9800   31.2060 C.cat  45  ARG45       0.5346
     20  NH1       -5.3240   72.6890   31.9630 N.pl3  45  ARG45       0.1354
     21  NH2       -6.3030   72.3140   29.9320 N.pl3  45  ARG45       0.1354
     22  N         -1.2730   71.5060   30.7090 N.3    76  GLN76      -0.1245
     23  CA        -2.2880   70.5110   31.0210 C.3    76  GLN76       0.1566
     24  C         -2.5180   70.3640   32.5200 C.2    76  GLN76       0.2260
     25  O         -3.1590   69.4060   32.9550 O.2    76  GLN76      -0.2867
     26  CB        -1.8850   69.1610   30.4120 C.3    76  GLN76       0.0367
     27  CG        -1.9910   69.1130   28.8990 C.3    76  GLN76       0.0905
     28  CD        -1.1520   68.0310   28.2540 C.2    76  GLN76       0.2608
     29  OE1       -0.6750   68.2100   27.1310 O.2    76  GLN76      -0.2717
     30  NE2       -0.9630   66.9110   28.9420 N.am   76  GLN76      -0.0878
     31  N          1.7090   66.1050   30.1980 N.3   144  HIS144     -0.1241
     32  CA         1.3610   64.7610   30.6210 C.3   144  HIS144      0.1621
     33  C          1.1200   64.6390   32.1190 C.2   144  HIS144      0.2264
     34  O          1.9260   64.0850   32.8670 O.2   144  HIS144     -0.2867
     35  CB         2.4390   63.7710   30.1680 C.3   144  HIS144      0.0745
     36  CG         2.7650   63.8460   28.7080 C.ar  144  HIS144      0.0817
     37  ND1        4.0080   63.5280   28.2110 N.ar  144  HIS144     -0.2268
     38  CD2        2.0180   64.2090   27.6380 C.ar  144  HIS144      0.1154
     39  CE1        4.0150   63.6850   26.9000 C.ar  144  HIS144      0.1986
     40  NE2        2.8160   64.0980   26.5250 N.ar  144  HIS144     -0.2212
     41  N          2.8570   56.8330   29.6790 N.3   228  ARG228     -0.1231
     42  CA         3.1640   58.1520   29.1280 C.3   228  ARG228      0.1694
     43  C          2.1470   59.1670   29.6430 C.2   228  ARG228      0.2592
     44  O          2.4290   59.9070   30.5850 O.2   228  ARG228     -0.2718
     45  CB         3.1920   58.1220   27.6030 C.3   228  ARG228      0.0321
     46  CG         3.6010   59.4410   26.9570 C.3   228  ARG228      0.0489
     47  CD         3.8180   59.2560   25.4660 C.3   228  ARG228      0.2205
     48  NE         4.0640   60.4940   24.7460 N.pl3 228  ARG228     -0.0865
     49  CZ         3.1670   61.4430   24.5110 C.cat 228  ARG228      0.5346
     50  NH1        1.9210   61.3210   24.9470 N.pl3 228  ARG228      0.1354
     51  NH2        3.5190   62.5300   23.8330 N.pl3 228  ARG228      0.1354
     52  N          0.9550   59.1540   29.0570 N.am  229  ASN229     -0.1974
     53  CA        -0.1120   60.0490   29.4920 C.3   229  ASN229      0.1688
     54  C         -1.4520   59.3230   29.4970 C.2   229  ASN229      0.2292
     55  O         -2.2860   59.4910   28.6090 O.2   229  ASN229     -0.2864
     56  CB        -0.1510   61.3050   28.6230 C.3   229  ASN229      0.1181
     57  CG        -1.1250   62.3570   29.1050 C.2   229  ASN229      0.2629
     58  OD1       -1.6540   62.2880   30.2170 O.2   229  ASN229     -0.2716
     59  ND2       -1.3810   63.3530   28.2610 N.am  229  ASN229     -0.0877
     60  N         -4.7880   59.2000   30.2470 N.3   231  GLN231     -0.1245
     61  CA        -5.9220   60.0500   30.5910 C.3   231  GLN231      0.1566
     62  C         -7.2040   59.2480   30.7670 C.2   231  GLN231      0.2260
     63  O         -8.1670   59.7260   31.3660 O.2   231  GLN231     -0.2867
     64  CB        -6.1180   61.1350   29.5280 C.3   231  GLN231      0.0367
     65  CG        -4.9730   62.1360   29.4880 C.3   231  GLN231      0.0905
     66  CD        -5.0740   63.1060   28.3290 C.2   231  GLN231      0.2608
     67  OE1       -5.5470   62.7570   27.2480 O.2   231  GLN231     -0.2717
     68  NE2       -4.6230   64.3370   28.5520 N.am  231  GLN231     -0.0878
     69  N         -2.0700   58.1330   25.8070 N.3   246  GLN246     -0.1231
     70  CA        -1.4770   58.8320   24.6790 C.3   246  GLN246      0.1698
     71  C         -0.0200   58.4470   24.4650 C.2   246  GLN246      0.2593
     72  O          0.7880   58.5560   25.3850 O.2   246  GLN246     -0.2718
     73  CB        -1.5880   60.3490   24.8840 C.3   246  GLN246      0.0381
     74  CG        -3.0050   60.8210   25.1690 C.3   246  GLN246      0.0905
     75  CD        -3.3770   62.0700   24.3960 C.2   246  GLN246      0.2608
     76  OE1       -4.2270   62.8630   24.8030 O.2   246  GLN246     -0.2717
     77  NE2       -2.7360   62.2530   23.2470 N.am  246  GLN246     -0.0878
     78  N          0.3120   58.0200   23.2490 N.am  247  GLY247     -0.1943
     79  CA         1.6870   57.6610   22.9110 C.3   247  GLY247      0.1998
     80  C          2.3680   58.8400   22.2170 C.2   247  GLY247      0.2480
     81  O          1.7920   59.9230   22.1280 O.2   247  GLY247     -0.2729
     82  N          3.5890   58.6450   21.7470 N.am  248  PRO248     -0.2726
     83  CA         4.3530   59.6810   21.0730 C.3   248  PRO248      0.1402
     84  C          3.7980   60.0660   19.7140 C.2   248  PRO248      0.2269
     85  O          2.6600   60.5510   19.6330 O.2   248  PRO248     -0.2865
     86  CB         5.7540   59.0850   21.0040 C.3   248  PRO248      0.0296
     87  CG         5.5400   57.6110   20.9910 C.3   248  PRO248      0.0237
     88  CD         4.3390   57.3660   21.8580 C.3   248  PRO248      0.0939
     89  N          1.8420   67.7070   13.6640 N.3   343  TYR343     -0.1241
     90  CA         1.5400   66.6930   14.6690 C.3   343  TYR343      0.1605
     91  C          0.1760   66.0430   14.4820 C.2   343  TYR343      0.2264
     92  O          0.0040   64.8770   14.8440 O.2   343  TYR343     -0.2867
     93  CB         1.6780   67.2600   16.0720 C.3   343  TYR343      0.0534
     94  CG         0.6340   68.1960   16.6180 C.ar  343  TYR343     -0.0201
     95  CD1       -0.4600   67.7080   17.3260 C.ar  343  TYR343     -0.0009
     96  CD2        0.7350   69.5720   16.4550 C.ar  343  TYR343     -0.0009
     97  CE1       -1.4210   68.5580   17.8410 C.ar  343  TYR343      0.0417
     98  CE2       -0.2200   70.4310   16.9660 C.ar  343  TYR343      0.0417
     99  CZ        -1.2940   69.9190   17.6590 C.ar  343  TYR343      0.1957
    100  OH        -2.2490   70.7690   18.1680 O.3   343  TYR343     -0.2866
    101  N         -0.0750   62.8280   12.3550 N.3   346  TRP346     -0.1241
    102  CA         0.6060   61.6470   12.8730 C.3   346  TRP346      0.1605
    103  C         -0.4080   60.5320   13.1290 C.2   346  TRP346      0.2264
    104  O         -1.5810   60.7890   13.3890 O.2   346  TRP346     -0.2867
    105  CB         1.3800   61.9290   14.1520 C.3   346  TRP346      0.0550
    106  CG         2.5880   62.8000   14.0210 C.ar  346  TRP346      0.0003
    107  CD1        3.3050   63.0740   12.8930 C.ar  346  TRP346      0.0946
    108  CD2        3.2400   63.5080   15.0860 C.ar  346  TRP346      0.0152
    109  NE1        4.3520   63.9110   13.1850 N.ar  346  TRP346     -0.2442
    110  CE2        4.3350   64.1910   14.5250 C.ar  346  TRP346      0.0810
    111  CE3        3.0000   63.6320   16.4590 C.ar  346  TRP346      0.0012
    112  CZ2        5.1890   64.9870   15.2880 C.ar  346  TRP346      0.0191
    113  CZ3        3.8480   64.4210   17.2120 C.ar  346  TRP346      0.0001
    114  CH2        4.9300   65.0890   16.6240 C.ar  346  TRP346      0.0015
    115  N         -1.8700   58.9150   15.2600 N.3   348  THR348     -0.1218
    116  CA        -2.3380   58.9400   16.6340 C.3   348  THR348      0.1862
    117  C         -3.7550   59.5110   16.6550 C.2   348  THR348      0.2287
    118  O         -4.2100   60.0190   15.6290 O.2   348  THR348     -0.2866
    119  CB        -1.4540   59.7910   17.5620 C.3   348  THR348      0.1770
    120  OG1       -0.8560   60.8610   16.8170 O.3   348  THR348     -0.2211
    121  CG2       -0.3730   58.9570   18.2220 C.3   348  THR348      0.0375
    122  N         -4.8900   60.8250   20.0080 N.3   350  ALA350     -0.1245
    123  CA        -4.9290   61.5750   21.2600 C.3   350  ALA350      0.1562
    124  C         -6.1710   61.2040   22.0630 C.2   350  ALA350      0.2260
    125  O         -7.1030   61.9950   22.2110 O.2   350  ALA350     -0.2867
    126  CB        -4.8880   63.0720   20.9860 C.3   350  ALA350      0.0290
    127  N         -9.1620   63.7930   20.8020 N.3   376  LEU376     -0.1231
    128  CA        -8.9570   65.2330   20.8180 C.3   376  LEU376      0.1693
    129  C         -8.6990   65.7670   19.4110 C.2   376  LEU376      0.2591
    130  O         -9.4420   66.6060   18.9070 O.2   376  LEU376     -0.2718
    131  CB        -7.7720   65.6120   21.7080 C.3   376  LEU376      0.0284
    132  CG        -7.8570   65.3040   23.2010 C.3   376  LEU376      0.0019
    133  CD1       -6.4790   65.4230   23.8420 C.3   376  LEU376      0.0001
    134  CD2       -8.8430   66.2260   23.9030 C.3   376  LEU376      0.0001
    135  N         -7.6430   65.2630   18.7790 N.am  377  LYS377     -0.1980
    136  CA        -7.2220   65.7700   17.4830 C.3   377  LYS377      0.1596
    137  C         -7.9940   65.2410   16.2860 C.2   377  LYS377      0.2287
    138  O         -7.7590   65.7530   15.1810 O.2   377  LYS377     -0.2864
    139  CB        -5.7210   65.5430   17.2860 C.3   377  LYS377      0.0298
    140  CG        -5.2920   64.2000   16.7240 C.3   377  LYS377      0.0038
    141  CD        -3.8920   64.3190   16.1330 C.3   377  LYS377      0.0206
    142  CE        -3.3390   62.9750   15.7030 C.3   377  LYS377      0.1093
    143  NZ        -1.9130   63.0750   15.2910 N.3   377  LYS377     -0.1314
    144  N        -12.5750   69.1380   19.8630 N.3   406  ARG406     -0.1245
    145  CA       -11.6140   68.2930   20.5740 C.3   406  ARG406      0.1563
    146  C        -12.3390   67.5710   21.7030 C.2   406  ARG406      0.2260
    147  O        -12.5260   68.1400   22.7790 O.2   406  ARG406     -0.2867
    148  CB       -10.4410   69.1220   21.0800 C.3   406  ARG406      0.0307
    149  CG        -9.5200   69.6050   19.9680 C.3   406  ARG406      0.0489
    150  CD        -8.5980   70.7050   20.4620 C.3   406  ARG406      0.2205
    151  NE        -7.7260   70.2850   21.5470 N.pl3 406  ARG406     -0.0865
    152  CZ        -6.6570   69.5110   21.4400 C.cat 406  ARG406      0.5346
    153  NH1       -6.2830   69.0320   20.2640 N.pl3 406  ARG406      0.1354
    154  NH2       -5.9560   69.2160   22.5280 N.pl3 406  ARG406      0.1354
    155  N        -13.1220   65.7780   24.7940 N.3   408  ARG408     -0.1245
    156  CA       -12.3720   65.7060   26.0370 C.3   408  ARG408      0.1563
    157  C        -12.7990   64.5780   26.9620 C.2   408  ARG408      0.2260
    158  O        -11.9470   63.9250   27.5690 O.2   408  ARG408     -0.2867
    159  CB       -12.5140   67.0600   26.7450 C.3   408  ARG408      0.0307
    160  CG       -11.9860   67.1610   28.1560 C.3   408  ARG408      0.0489
    161  CD       -10.5200   66.7890   28.2660 C.3   408  ARG408      0.2205
    162  NE        -9.6900   67.4790   27.2880 N.pl3 408  ARG408     -0.0865
    163  CZ        -8.3660   67.4010   27.2380 C.cat 408  ARG408      0.5346
    164  NH1       -7.7010   66.6600   28.1170 N.pl3 408  ARG408      0.1354
    165  NH2       -7.6850   68.0650   26.3140 N.pl3 408  ARG408      0.1354
    166  N        -12.9930   70.6480   24.1670 N.3   424  ASP424     -0.1239
    167  CA       -12.0320   71.6490   24.6110 C.3   424  ASP424      0.1674
    168  C        -12.4650   73.0520   24.1960 C.2   424  ASP424      0.2266
    169  O        -13.1120   73.2420   23.1680 O.2   424  ASP424     -0.2867
    170  CB       -10.6330   71.3560   24.0730 C.3   424  ASP424      0.1410
    171  CG        -9.8910   70.2860   24.8460 C.2   424  ASP424      0.3668
    172  OD1      -10.4630   69.7010   25.7900 O.co2 424  ASP424     -0.2456
    173  OD2       -8.7170   70.0170   24.5150 O.co2 424  ASP424     -0.2456
@<TRIPOS>BOND
     1   101   102    1
     2   102   103    1
     3   102   105    1
     4   107   109   ar
     5   107   106   ar
     6   103   104    2
     7   109   110   ar
     8    89    90    1
     9   106   105    1
    10   106   108   ar
    11    91    90    1
    12    91    92    2
    13   110   108   ar
    14   110   112   ar
    15    90    93    1
    16   108   111   ar
    17   138   137    2
    18   115   116    1
    19   112   114   ar
    20   143   142    1
    21   118   117    2
    22   142   141    1
    23    93    94    1
    24   141   140    1
    25   137   136    1
    26    96    94   ar
    27    96    98   ar
    28   111   113   ar
    29    94    95   ar
    30   114   113   ar
    31   116   117    1
    32   116   119    1
    33   140   139    1
    34   120   119    1
    35    98    99   ar
    36   139   136    1
    37    95    97   ar
    38   136   135    1
    39   119   121    1
    40    99    97   ar
    41    99   100    1
    42   135   129   am
    43   130   129    2
    44   129   128    1
    45    85    84    2
    46    84    83    1
    47   144   145    1
    48   149   150    1
    49   149   148    1
    50   122   123    1
    51   153   152    1
    52   150   151    1
    53   145   148    1
    54   145   146    1
    55   127   128    1
    56   128   131    1
    57   126   123    1
    58    87    86    1
    59    87    88    1
    60    86    83    1
    61    83    82    1
    62   123   124    1
    63   152   151    2
    64   152   154    1
    65   146   147    2
    66   131   132    1
    67    82    88    1
    68    82    80   am
    69   124   125    2
    70    81    80    2
    71    80    79    1
    72    79    78    1
    73   169   168    2
    74   132   133    1
    75   132   134    1
    76    77    75   am
    77    78    71   am
    78    51    49    1
    79   170   167    1
    80   170   171    1
    81   166   167    1
    82   168   167    1
    83    75    76    2
    84    75    74    1
    85    71    70    1
    86    71    72    2
    87    49    48    2
    88    49    50    1
    89   173   171   ar
    90    70    73    1
    91    70    69    1
    92    48    47    1
    93   155   156    1
    94   171   172   ar
    95    73    74    1
    96    47    46    1
    97   156   159    1
    98   156   157    1
    99   165   163    1
   100    40    39   ar
   101    40    38   ar
   102   159   160    1
   103    39    37   ar
   104    46    45    1
   105   157   158    2
   106    29    28    2
   107   163   162    2
   108   163   164    1
   109    67    66    2
   110   162   161    1
   111    45    42    1
   112    38    36   ar
   113   160   161    1
   114    37    36   ar
   115    28    27    1
   116    28    30   am
   117    59    57   am
   118    66    68   am
   119    66    65    1
   120    55    54    2
   121    56    57    1
   122    56    53    1
   123    36    35    1
   124    27    26    1
   125    52    53    1
   126    52    43   am
   127    57    58    2
   128    42    43    1
   129    42    41    1
   130    65    64    1
   131    53    54    1
   132    64    61    1
   133    43    44    2
   134    21    19    1
   135    35    32    1
   136    31    32    1
   137    60    61    1
   138    26    23    1
   139    61    62    1
   140    32    33    1
   141    22    23    1
   142    62    63    2
   143    23    24    1
   144     4     3    2
   145    19    18    2
   146    19    20    1
   147     7     9   ar
   148     7     6   ar
   149    18    17    1
   150     9    10   ar
   151     2     1    1
   152     2     3    1
   153     2     5    1
   154    33    34    2
   155    24    25    2
   156    10     8   ar
   157     6     5    1
   158     6     8   ar
   159    17    16    1
   160    15    16    1
   161    15    12    1
   162    11    12    1
   163    12    13    1
   164    13    14    2
