@<TRIPOS>MOLECULE
tmp/1c9yA00.pdb
 132 124 0 0 0
SMALL
GASTEIGER

@<TRIPOS>ATOM
      1  N          2.8170   -2.9010  -13.7100 N.3    55  LYS55      -0.1245
      2  CA         2.5470   -1.4850  -13.8900 C.3    55  LYS55       0.1561
      3  C          1.0560   -1.2790  -14.0560 C.2    55  LYS55       0.2260
      4  O          0.3360   -2.2190  -14.3880 O.2    55  LYS55      -0.2867
      5  CB         3.2640   -0.9550  -15.1410 C.3    55  LYS55       0.0271
      6  CG         4.7760   -0.8500  -15.0910 C.3    55  LYS55       0.0035
      7  CD         5.2590   -0.7470  -16.5160 C.3    55  LYS55       0.0206
      8  CE         6.7400   -0.4370  -16.5010 C.3    55  LYS55       0.1093
      9  NZ         7.3440   -0.5650  -17.8220 N.3    55  LYS55      -0.1314
     10  N          2.7810   -7.5510  -18.2390 N.3   108  ARG108     -0.1245
     11  CA         3.1990   -6.1760  -18.4010 C.3   108  ARG108      0.1563
     12  C          4.3000   -6.0250  -17.3750 C.2   108  ARG108      0.2260
     13  O          4.0920   -6.2070  -16.1700 O.2   108  ARG108     -0.2867
     14  CB         2.0720   -5.1970  -18.1020 C.3   108  ARG108      0.0307
     15  CG         2.5920   -3.7460  -18.0120 C.3   108  ARG108      0.0489
     16  CD         1.4570   -2.7420  -17.9840 C.3   108  ARG108      0.2205
     17  NE         0.9820   -2.6220  -19.3580 N.pl3 108  ARG108     -0.0865
     18  CZ         0.3660   -1.5570  -19.8430 C.cat 108  ARG108      0.5346
     19  NH1        0.1290   -0.5170  -19.0680 N.pl3 108  ARG108      0.1354
     20  NH2        0.0660   -1.5330  -21.1400 N.pl3 108  ARG108      0.1354
     21  N          3.2710   -4.9340  -22.5120 N.3   130  LEU130     -0.1245
     22  CA         4.1080   -3.7310  -22.4910 C.3   130  LEU130      0.1561
     23  C          5.3220   -4.0230  -21.6130 C.2   130  LEU130      0.2260
     24  O          5.2270   -4.6040  -20.5270 O.2   130  LEU130     -0.2867
     25  CB         3.4440   -2.4610  -21.9020 C.3   130  LEU130      0.0270
     26  CG         4.2780   -1.1770  -21.7460 C.3   130  LEU130      0.0019
     27  CD1        3.3880    0.0110  -21.9840 C.3   130  LEU130      0.0001
     28  CD2        4.8560   -1.0360  -20.3380 C.3   130  LEU130      0.0001
     29  N          6.0710   -2.4570  -27.0860 N.3   135  HIS135     -0.1241
     30  CA         4.6570   -2.6620  -26.7910 C.3   135  HIS135      0.1621
     31  C          3.9690   -3.1720  -28.0770 C.2   135  HIS135      0.2264
     32  O          3.1500   -2.4830  -28.7030 O.2   135  HIS135     -0.2867
     33  CB         4.0170   -1.3460  -26.2810 C.3   135  HIS135      0.0745
     34  CG         2.6390   -1.5490  -25.6280 C.ar  135  HIS135      0.0817
     35  ND1        2.0050   -2.6980  -25.3760 N.ar  135  HIS135     -0.2268
     36  CD2        1.8220   -0.5360  -25.1860 C.ar  135  HIS135      0.1154
     37  CE1        0.8540   -2.4020  -24.8030 C.ar  135  HIS135      0.1986
     38  NE2        0.7440   -1.1000  -24.6920 N.ar  135  HIS135     -0.2212
     39  N         -0.0170   -2.9770  -28.8670 N.3   138  GLN138     -0.1245
     40  CA        -0.5340   -1.6350  -29.1500 C.3   138  GLN138      0.1566
     41  C         -0.5000   -1.3520  -30.6580 C.2   138  GLN138      0.2260
     42  O         -1.4930   -0.8870  -31.2210 O.2   138  GLN138     -0.2867
     43  CB         0.3000   -0.5800  -28.4570 C.3   138  GLN138      0.0367
     44  CG        -0.1580    0.8480  -28.7300 C.3   138  GLN138      0.0905
     45  CD        -1.5570    1.1030  -28.1880 C.2   138  GLN138      0.2608
     46  OE1       -1.8320    0.9030  -27.0000 O.2   138  GLN138     -0.2717
     47  NE2       -2.4730    1.5750  -29.0340 N.am  138  GLN138     -0.0878
     48  N         10.7280    5.7410  -27.2360 N.3   165  ASN165     -0.1225
     49  CA        10.3000    4.7660  -26.2420 C.3   165  ASN165      0.1785
     50  C          9.7920    3.4500  -26.8300 C.2   165  ASN165      0.2597
     51  O          9.9520    3.1760  -28.0210 O.2   165  ASN165     -0.2718
     52  CB         9.2260    5.4560  -25.3720 C.3   165  ASN165      0.1169
     53  CG         7.9160    5.7960  -26.0880 C.2   165  ASN165      0.2627
     54  OD1        7.6100    5.3160  -27.1860 O.2   165  ASN165     -0.2716
     55  ND2        7.1090    6.6420  -25.4530 N.am  165  ASN165     -0.0877
     56  N          9.1680    2.6220  -25.9840 N.am  166  ASN166     -0.1960
     57  CA         8.6090    1.3440  -26.3630 C.3   166  ASN166      0.1819
     58  C          7.6140    1.3870  -27.5300 C.2   166  ASN166      0.2621
     59  O          7.6550    0.4940  -28.3800 O.2   166  ASN166     -0.2715
     60  CB         7.9280    0.6970  -25.1210 C.3   166  ASN166      0.1195
     61  CG         7.0340    1.5840  -24.2450 C.2   166  ASN166      0.2630
     62  OD1        6.6210    2.6980  -24.5720 O.2   166  ASN166     -0.2716
     63  ND2        6.7120    1.0820  -23.0590 N.am  166  ASN166     -0.0877
     64  N          6.7500    2.4190  -27.6130 N.am  167  ILE167     -0.1977
     65  CA         5.7600    2.5220  -28.6900 C.3   167  ILE167      0.1596
     66  C          6.5040    2.7780  -29.9990 C.2   167  ILE167      0.2287
     67  O          6.2600    2.0650  -30.9790 O.2   167  ILE167     -0.2864
     68  CB         4.7410    3.6830  -28.4260 C.3   167  ILE167      0.0276
     69  CG1        4.1000    3.5660  -27.0340 C.3   167  ILE167      0.0022
     70  CG2        3.6500    3.6460  -29.5150 C.3   167  ILE167      0.0022
     71  CD1        3.4990    2.1910  -26.6790 C.3   167  ILE167      0.0001
     72  N          2.9410   10.1900  -27.7140 N.3   230  ASP230     -0.1225
     73  CA         2.7230    9.4720  -26.4680 C.3   230  ASP230      0.1805
     74  C          3.3080   10.3570  -25.3820 C.2   230  ASP230      0.2598
     75  O          3.9720   11.3480  -25.6920 O.2   230  ASP230     -0.2718
     76  CB         3.4560    8.1440  -26.5240 C.3   230  ASP230      0.1424
     77  CG         3.3720    7.2490  -25.3050 C.2   230  ASP230      0.3668
     78  OD1        2.4530    7.3520  -24.5040 O.co2 230  ASP230     -0.2456
     79  OD2        4.2570    6.4300  -25.1670 O.co2 230  ASP230     -0.2456
     80  N          3.0760   10.0380  -24.1060 N.am  231  THR231     -0.1953
     81  CA         3.6550   10.7410  -22.9700 C.3   231  THR231      0.1897
     82  C          5.1780   10.8800  -23.0800 C.2   231  THR231      0.2313
     83  O          5.9010   10.0460  -23.6310 O.2   231  THR231     -0.2863
     84  CB         3.2830    9.9870  -21.6760 C.3   231  THR231      0.1794
     85  OG1        3.6610   10.8690  -20.6250 O.3   231  THR231     -0.2208
     86  CG2        3.9430    8.6180  -21.5300 C.3   231  THR231      0.0378
     87  N          7.3070    8.1520  -19.4880 N.3   234  SER234     -0.1202
     88  CA         6.7210    6.8300  -19.4120 C.3   234  SER234      0.2020
     89  C          6.7140    6.2700  -17.9900 C.2   234  SER234      0.2618
     90  O          7.4250    6.7710  -17.1110 O.2   234  SER234     -0.2717
     91  CB         7.4890    5.8930  -20.3440 C.3   234  SER234      0.2103
     92  OG         7.1800    6.1390  -21.7180 O.3   234  SER234     -0.2182
     93  N          5.8880    5.2480  -17.7190 N.am  235  MET235     -0.1979
     94  CA         5.8650    4.6120  -16.4080 C.3   235  MET235      0.1605
     95  C          7.2450    4.0500  -16.0670 C.2   235  MET235      0.2287
     96  O          7.8580    3.3360  -16.8650 O.2   235  MET235     -0.2864
     97  CB         4.8340    3.4860  -16.3890 C.3   235  MET235      0.0413
     98  CG         3.3940    3.9720  -16.3730 C.3   235  MET235      0.0598
     99  SD         2.2220    2.5850  -16.3170 S.3   235  MET235     -0.1393
    100  CE         2.2310    2.0700  -18.0140 C.3   235  MET235      0.0692
    101  N         -1.4290    6.1620  -28.1320 N.3   270  CYS270     -0.1221
    102  CA        -1.7130    4.9010  -27.4400 C.3   270  CYS270      0.1808
    103  C         -2.4990    5.0530  -26.1450 C.2   270  CYS270      0.2601
    104  O         -3.2150    4.1260  -25.7700 O.2   270  CYS270     -0.2717
    105  CB        -0.4050    4.1580  -27.1190 C.3   270  CYS270      0.0970
    106  SG         0.6670    5.0320  -25.9520 S.3   270  CYS270     -0.0800
    107  N         -2.4140    6.2330  -25.5060 N.am  271  LEU271     -0.1966
    108  CA        -3.0410    6.6060  -24.2340 C.3   271  LEU271      0.1713
    109  C         -2.4320    5.8450  -23.0460 C.2   271  LEU271      0.2458
    110  O         -1.8760    4.7700  -23.2650 O.2   271  LEU271     -0.2730
    111  CB        -4.5680    6.3670  -24.2800 C.3   271  LEU271      0.0310
    112  CG        -5.3690    6.9780  -25.4170 C.3   271  LEU271      0.0022
    113  CD1       -6.8680    6.7190  -25.1990 C.3   271  LEU271      0.0001
    114  CD2       -5.0780    8.4740  -25.4850 C.3   271  LEU271      0.0001
    115  N         -2.4120    6.3150  -21.7850 N.am  272  PRO272     -0.2727
    116  CA        -2.9990    7.5680  -21.3210 C.3   272  PRO272      0.1402
    117  C         -2.2890    8.8390  -21.8090 C.2   272  PRO272      0.2269
    118  O         -1.0560    8.9000  -21.8980 O.2   272  PRO272     -0.2865
    119  CB        -2.9920    7.4030  -19.8250 C.3   272  PRO272      0.0296
    120  CG        -1.7360    6.6200  -19.5390 C.3   272  PRO272      0.0237
    121  CD        -1.7360    5.6240  -20.6850 C.3   272  PRO272      0.0939
    122  N         -7.6860   -2.2880  -29.3520 N.3   297  ARG297     -0.1245
    123  CA        -6.8520   -3.0620  -28.4340 C.3   297  ARG297      0.1563
    124  C         -7.5640   -4.3570  -28.0550 C.2   297  ARG297      0.2260
    125  O         -6.9160   -5.3950  -27.8920 O.2   297  ARG297     -0.2867
    126  CB        -6.5780   -2.2820  -27.1600 C.3   297  ARG297      0.0307
    127  CG        -5.6970   -1.0460  -27.3940 C.3   297  ARG297      0.0489
    128  CD        -4.2620   -1.3900  -27.8520 C.3   297  ARG297      0.2205
    129  NE        -3.7230   -2.4860  -27.0610 N.pl3 297  ARG297     -0.0865
    130  CZ        -3.1530   -2.2730  -25.8800 C.cat 297  ARG297      0.5346
    131  NH1       -3.0010   -1.0590  -25.3730 N.pl3 297  ARG297      0.1354
    132  NH2       -2.9200   -3.3070  -25.0870 N.pl3 297  ARG297      0.1354
@<TRIPOS>BOND
     1    42    41    2
     2    67    66    2
     3    41    40    1
     4    66    65    1
     5    70    68    1
     6   122   123    1
     7    40    39    1
     8    40    43    1
     9    47    45   am
    10    44    43    1
    11    44    45    1
    12    32    31    2
    13    65    68    1
    14    65    64    1
    15   123   124    1
    16   123   126    1
    17    68    69    1
    18    59    58    2
    19    45    46    2
    20   101   102    1
    21    31    30    1
    22   124   125    2
    23    51    50    2
    24   128   127    1
    25   128   129    1
    26    72    73    1
    27    64    58   am
    28    58    57    1
    29   102   105    1
    30   102   103    1
    31   127   126    1
    32    48    49    1
    33    54    53    2
    34   105   106    1
    35    29    30    1
    36   129   130    2
    37    69    71    1
    38    50    49    1
    39    50    56   am
    40    30    33    1
    41    76    73    1
    42    76    77    1
    43    73    74    1
    44    57    56    1
    45    57    60    1
    46    33    34    1
    47    49    52    1
    48   103   104    2
    49   103   107   am
    50    53    55   am
    51    53    52    1
    52   130   131    1
    53   130   132    1
    54    75    74    2
    55    34    35   ar
    56    34    36   ar
    57   107   108    1
    58   114   112    1
    59   112   113    1
    60   112   111    1
    61    74    80   am
    62    35    37   ar
    63    77    79   ar
    64    77    78   ar
    65    36    38   ar
    66    60    61    1
    67    37    38   ar
    68    62    61    2
    69   111   108    1
    70    61    63   am
    71   108   109    1
    72    80    81    1
    73    83    82    2
    74   110   109    2
    75    82    81    1
    76   109   115   am
    77    81    84    1
    78    21    22    1
    79    22    25    1
    80    22    23    1
    81    27    26    1
    82    25    26    1
    83   118   117    2
    84   117   116    1
    85   115   116    1
    86   115   121    1
    87    26    28    1
    88    92    91    1
    89    84    86    1
    90    84    85    1
    91    23    24    2
    92   116   119    1
    93    20    18    1
    94   121   120    1
    95    91    88    1
    96    18    17    2
    97    18    19    1
    98   119   120    1
    99    87    88    1
   100    88    89    1
   101    17    16    1
   102    11    10    1
   103    11    14    1
   104    11    12    1
   105    14    15    1
   106   100    99    1
   107    15    16    1
   108    89    93   am
   109    89    90    2
   110     9     8    1
   111    93    94    1
   112    12    13    2
   113    96    95    2
   114     7     8    1
   115     7     6    1
   116    94    97    1
   117    94    95    1
   118    97    98    1
   119    98    99    1
   120     5     6    1
   121     5     2    1
   122     4     3    2
   123     3     2    1
   124     2     1    1
