@<TRIPOS>MOLECULE
tmp/1c9yA01.pdb
 120 114 0 0 0
SMALL
GASTEIGER

@<TRIPOS>ATOM
      1  N          0.5830   -0.0540  -13.7980 N.3    56  ARG56      -0.1231
      2  CA        -0.8080    0.3280  -14.0100 C.3    56  ARG56       0.1694
      3  C         -1.2430    0.0990  -15.4530 C.2    56  ARG56       0.2593
      4  O         -0.4240    0.1420  -16.3780 O.2    56  ARG56      -0.2718
      5  CB        -1.0410    1.7920  -13.7090 C.3    56  ARG56       0.0321
      6  CG        -1.2010    2.0730  -12.2500 C.3    56  ARG56       0.0489
      7  CD        -1.1610    3.5700  -12.0340 C.3    56  ARG56       0.2205
      8  NE        -0.8970    3.8240  -10.6190 N.pl3  56  ARG56      -0.0865
      9  CZ        -1.8980    3.9690   -9.7450 C.cat  56  ARG56       0.5346
     10  NH1       -3.1660    3.8990  -10.1490 N.pl3  56  ARG56       0.1354
     11  NH2       -1.6400    4.1550   -8.4490 N.pl3  56  ARG56       0.1354
     12  N         -2.5440   -0.1690  -15.6250 N.am   57  SER57      -0.1938
     13  CA        -3.1100   -0.3790  -16.9340 C.3    57  SER57       0.2055
     14  C         -4.6110   -0.2230  -16.9190 C.2    57  SER57       0.2644
     15  O         -5.2640   -0.7690  -16.0290 O.2    57  SER57      -0.2714
     16  CB        -2.7450   -1.7710  -17.4110 C.3    57  SER57       0.2130
     17  OG        -3.3560   -2.0290  -18.6570 O.3    57  SER57      -0.2179
     18  N         -5.1680    0.5220  -17.8840 N.am   58  THR58      -0.1936
     19  CA        -6.6110    0.6160  -18.0990 C.3    58  THR58       0.2028
     20  C         -6.9360   -0.1360  -19.3940 C.2    58  THR58       0.2642
     21  O         -7.6650   -1.1280  -19.3360 O.2    58  THR58      -0.2714
     22  CB        -7.0860    2.0900  -18.2320 C.3    58  THR58       0.1808
     23  OG1       -6.7990    2.7270  -16.9990 O.3    58  THR58      -0.2208
     24  CG2       -8.5730    2.2180  -18.5050 C.3    58  THR58       0.0379
     25  N         -6.4150    0.2780  -20.5680 N.am   59  ARG59      -0.1963
     26  CA        -6.6510   -0.3850  -21.8510 C.3    59  ARG59       0.1729
     27  C         -6.1910   -1.8260  -21.9740 C.2    59  ARG59       0.2616
     28  O         -6.9950   -2.6550  -22.4050 O.2    59  ARG59      -0.2715
     29  CB        -5.9890    0.3720  -23.0100 C.3    59  ARG59       0.0348
     30  CG        -6.7730    1.6180  -23.4120 C.3    59  ARG59       0.0492
     31  CD        -5.8160    2.7570  -23.7970 C.3    59  ARG59       0.2205
     32  NE        -5.1770    3.2420  -22.5850 N.pl3  59  ARG59      -0.0865
     33  CZ        -5.6780    4.2030  -21.8070 C.cat  59  ARG59       0.5346
     34  NH1       -6.8110    4.8420  -22.0830 N.pl3  59  ARG59       0.1354
     35  NH2       -5.0770    4.4560  -20.6520 N.pl3  59  ARG59       0.1354
     36  N         -4.9360   -2.1570  -21.6210 N.am   60  THR60      -0.1951
     37  CA        -4.4320   -3.5120  -21.7810 C.3    60  THR60       0.1897
     38  C         -5.1720   -4.4210  -20.8340 C.2    60  THR60       0.2313
     39  O         -5.5850   -5.5010  -21.2410 O.2    60  THR60      -0.2863
     40  CB        -2.9170   -3.6170  -21.4960 C.3    60  THR60       0.1794
     41  OG1       -2.2930   -2.7050  -22.3940 O.3    60  THR60      -0.2208
     42  CG2       -2.3180   -4.9840  -21.7850 C.3    60  THR60       0.0378
     43  N          2.7810   -7.5510  -18.2390 N.3   108  ARG108     -0.1245
     44  CA         3.1990   -6.1760  -18.4010 C.3   108  ARG108      0.1563
     45  C          4.3000   -6.0250  -17.3750 C.2   108  ARG108      0.2260
     46  O          4.0920   -6.2070  -16.1700 O.2   108  ARG108     -0.2867
     47  CB         2.0720   -5.1970  -18.1020 C.3   108  ARG108      0.0307
     48  CG         2.5920   -3.7460  -18.0120 C.3   108  ARG108      0.0489
     49  CD         1.4570   -2.7420  -17.9840 C.3   108  ARG108      0.2205
     50  NE         0.9820   -2.6220  -19.3580 N.pl3 108  ARG108     -0.0865
     51  CZ         0.3660   -1.5570  -19.8430 C.cat 108  ARG108      0.5346
     52  NH1        0.1290   -0.5170  -19.0680 N.pl3 108  ARG108      0.1354
     53  NH2        0.0660   -1.5330  -21.1400 N.pl3 108  ARG108      0.1354
     54  N          3.2710   -4.9340  -22.5120 N.3   130  LEU130     -0.1245
     55  CA         4.1080   -3.7310  -22.4910 C.3   130  LEU130      0.1561
     56  C          5.3220   -4.0230  -21.6130 C.2   130  LEU130      0.2260
     57  O          5.2270   -4.6040  -20.5270 O.2   130  LEU130     -0.2867
     58  CB         3.4440   -2.4610  -21.9020 C.3   130  LEU130      0.0270
     59  CG         4.2780   -1.1770  -21.7460 C.3   130  LEU130      0.0019
     60  CD1        3.3880    0.0110  -21.9840 C.3   130  LEU130      0.0001
     61  CD2        4.8560   -1.0360  -20.3380 C.3   130  LEU130      0.0001
     62  N          6.0710   -2.4570  -27.0860 N.3   135  HIS135     -0.1241
     63  CA         4.6570   -2.6620  -26.7910 C.3   135  HIS135      0.1621
     64  C          3.9690   -3.1720  -28.0770 C.2   135  HIS135      0.2264
     65  O          3.1500   -2.4830  -28.7030 O.2   135  HIS135     -0.2867
     66  CB         4.0170   -1.3460  -26.2810 C.3   135  HIS135      0.0745
     67  CG         2.6390   -1.5490  -25.6280 C.ar  135  HIS135      0.0817
     68  ND1        2.0050   -2.6980  -25.3760 N.ar  135  HIS135     -0.2268
     69  CD2        1.8220   -0.5360  -25.1860 C.ar  135  HIS135      0.1154
     70  CE1        0.8540   -2.4020  -24.8030 C.ar  135  HIS135      0.1986
     71  NE2        0.7440   -1.1000  -24.6920 N.ar  135  HIS135     -0.2212
     72  N         -0.0170   -2.9770  -28.8670 N.3   138  GLN138     -0.1245
     73  CA        -0.5340   -1.6350  -29.1500 C.3   138  GLN138      0.1566
     74  C         -0.5000   -1.3520  -30.6580 C.2   138  GLN138      0.2260
     75  O         -1.4930   -0.8870  -31.2210 O.2   138  GLN138     -0.2867
     76  CB         0.3000   -0.5800  -28.4570 C.3   138  GLN138      0.0367
     77  CG        -0.1580    0.8480  -28.7300 C.3   138  GLN138      0.0905
     78  CD        -1.5570    1.1030  -28.1880 C.2   138  GLN138      0.2608
     79  OE1       -1.8320    0.9030  -27.0000 O.2   138  GLN138     -0.2717
     80  NE2       -2.4730    1.5750  -29.0340 N.am  138  GLN138     -0.0878
     81  N          5.8880    5.2480  -17.7190 N.3   235  MET235     -0.1245
     82  CA         5.8650    4.6120  -16.4080 C.3   235  MET235      0.1570
     83  C          7.2450    4.0500  -16.0670 C.2   235  MET235      0.2261
     84  O          7.8580    3.3360  -16.8650 O.2   235  MET235     -0.2867
     85  CB         4.8340    3.4860  -16.3890 C.3   235  MET235      0.0387
     86  CG         3.3940    3.9720  -16.3730 C.3   235  MET235      0.0595
     87  SD         2.2220    2.5850  -16.3170 S.3   235  MET235     -0.1393
     88  CE         2.2310    2.0700  -18.0140 C.3   235  MET235      0.0692
     89  N         -1.4290    6.1620  -28.1320 N.3   270  CYS270     -0.1221
     90  CA        -1.7130    4.9010  -27.4400 C.3   270  CYS270      0.1808
     91  C         -2.4990    5.0530  -26.1450 C.2   270  CYS270      0.2601
     92  O         -3.2150    4.1260  -25.7700 O.2   270  CYS270     -0.2717
     93  CB        -0.4050    4.1580  -27.1190 C.3   270  CYS270      0.0970
     94  SG         0.6670    5.0320  -25.9520 S.3   270  CYS270     -0.0800
     95  N         -2.4140    6.2330  -25.5060 N.am  271  LEU271     -0.1966
     96  CA        -3.0410    6.6060  -24.2340 C.3   271  LEU271      0.1713
     97  C         -2.4320    5.8450  -23.0460 C.2   271  LEU271      0.2458
     98  O         -1.8760    4.7700  -23.2650 O.2   271  LEU271     -0.2730
     99  CB        -4.5680    6.3670  -24.2800 C.3   271  LEU271      0.0310
    100  CG        -5.3690    6.9780  -25.4170 C.3   271  LEU271      0.0022
    101  CD1       -6.8680    6.7190  -25.1990 C.3   271  LEU271      0.0001
    102  CD2       -5.0780    8.4740  -25.4850 C.3   271  LEU271      0.0001
    103  N         -2.4120    6.3150  -21.7850 N.am  272  PRO272     -0.2727
    104  CA        -2.9990    7.5680  -21.3210 C.3   272  PRO272      0.1402
    105  C         -2.2890    8.8390  -21.8090 C.2   272  PRO272      0.2269
    106  O         -1.0560    8.9000  -21.8980 O.2   272  PRO272     -0.2865
    107  CB        -2.9920    7.4030  -19.8250 C.3   272  PRO272      0.0296
    108  CG        -1.7360    6.6200  -19.5390 C.3   272  PRO272      0.0237
    109  CD        -1.7360    5.6240  -20.6850 C.3   272  PRO272      0.0939
    110  N         -7.6860   -2.2880  -29.3520 N.3   297  ARG297     -0.1245
    111  CA        -6.8520   -3.0620  -28.4340 C.3   297  ARG297      0.1563
    112  C         -7.5640   -4.3570  -28.0550 C.2   297  ARG297      0.2260
    113  O         -6.9160   -5.3950  -27.8920 O.2   297  ARG297     -0.2867
    114  CB        -6.5780   -2.2820  -27.1600 C.3   297  ARG297      0.0307
    115  CG        -5.6970   -1.0460  -27.3940 C.3   297  ARG297      0.0489
    116  CD        -4.2620   -1.3900  -27.8520 C.3   297  ARG297      0.2205
    117  NE        -3.7230   -2.4860  -27.0610 N.pl3 297  ARG297     -0.0865
    118  CZ        -3.1530   -2.2730  -25.8800 C.cat 297  ARG297      0.5346
    119  NH1       -3.0010   -1.0590  -25.3730 N.pl3 297  ARG297      0.1354
    120  NH2       -2.9200   -3.3070  -25.0870 N.pl3 297  ARG297      0.1354
@<TRIPOS>BOND
     1    75    74    2
     2    74    73    1
     3   110   111    1
     4    73    72    1
     5    73    76    1
     6    80    78   am
     7    77    76    1
     8    77    78    1
     9    65    64    2
    10   111   112    1
    11   111   114    1
    12    78    79    2
    13    89    90    1
    14    64    63    1
    15   112   113    2
    16   116   115    1
    17   116   117    1
    18    90    93    1
    19    90    91    1
    20   115   114    1
    21    93    94    1
    22    62    63    1
    23   117   118    2
    24    63    66    1
    25    66    67    1
    26    91    92    2
    27    91    95   am
    28   118   119    1
    29   118   120    1
    30    67    68   ar
    31    67    69   ar
    32    95    96    1
    33   102   100    1
    34   100   101    1
    35   100    99    1
    36    68    70   ar
    37    69    71   ar
    38    70    71   ar
    39    99    96    1
    40    96    97    1
    41    31    30    1
    42    31    32    1
    43    30    29    1
    44    98    97    2
    45    97   103   am
    46    29    26    1
    47    32    33    2
    48    54    55    1
    49    55    58    1
    50    55    56    1
    51    28    27    2
    52    41    40    1
    53    34    33    1
    54    60    59    1
    55    27    26    1
    56    27    36   am
    57    58    59    1
    58   106   105    2
    59    26    25    1
    60   105   104    1
    61    33    35    1
    62   103   104    1
    63   103   109    1
    64    42    40    1
    65    37    36    1
    66    37    40    1
    67    37    38    1
    68    59    61    1
    69    56    57    2
    70   104   107    1
    71    39    38    2
    72    53    51    1
    73   109   108    1
    74    25    20   am
    75    51    50    2
    76    51    52    1
    77   107   108    1
    78    20    21    2
    79    20    19    1
    80    50    49    1
    81    17    16    1
    82    24    22    1
    83    44    43    1
    84    44    47    1
    85    44    45    1
    86    22    19    1
    87    22    23    1
    88    47    48    1
    89    19    18    1
    90    88    87    1
    91    48    49    1
    92    18    14   am
    93    81    82    1
    94    16    13    1
    95    45    46    2
    96    13    14    1
    97    13    12    1
    98    14    15    2
    99    84    83    2
   100    82    85    1
   101    82    83    1
   102    85    86    1
   103     4     3    2
   104    86    87    1
   105    12     3   am
   106     3     2    1
   107     2     1    1
   108     2     5    1
   109     5     6    1
   110     6     7    1
   111     7     8    1
   112     8     9    2
   113    10     9    1
   114     9    11    1
