@<TRIPOS>MOLECULE
tmp/1ca0F00.pdb
 142 142 0 0 0
SMALL
GASTEIGER

@<TRIPOS>ATOM
      1  N         32.9720   82.1150   33.4150 N.3     5  GLU5       -0.1245
      2  CA        31.8840   81.6640   34.2810 C.3     5  GLU5        0.1567
      3  C         32.3200   80.5710   35.2500 C.2     5  GLU5        0.2260
      4  O         33.3230   79.8940   35.0320 O.2     5  GLU5       -0.2867
      5  CB        30.6640   81.2010   33.4590 C.3     5  GLU5        0.0388
      6  CG        30.7940   79.8410   32.7580 C.3     5  GLU5        0.1160
      7  CD        31.4070   79.9110   31.3630 C.2     5  GLU5        0.3649
      8  OE1       31.9110   80.9820   30.9580 O.co2   5  GLU5       -0.2457
      9  OE2       31.3790   78.8760   30.6620 O.co2   5  GLU5       -0.2457
     10  N         31.1150   73.6820   36.8130 N.3     8  VAL8       -0.1231
     11  CA        30.2800   72.7340   37.5560 C.3     8  VAL8        0.1678
     12  C         31.1630   71.9490   38.5130 C.2     8  VAL8        0.2434
     13  O         32.2040   71.4310   38.1100 O.2     8  VAL8       -0.2733
     14  CB        29.5960   71.7320   36.6110 C.3     8  VAL8        0.0265
     15  CG1       28.8380   70.6790   37.4080 C.3     8  VAL8        0.0020
     16  CG2       28.6710   72.4640   35.6550 C.3     8  VAL8        0.0020
     17  N         30.7610   71.8450   39.7910 N.am    9  PRO9       -0.2718
     18  CA        31.5480   71.1090   40.7830 C.3     9  PRO9        0.1535
     19  C         31.9110   69.7120   40.2980 C.2     9  PRO9        0.2599
     20  O         31.0720   68.8080   40.2980 O.2     9  PRO9       -0.2715
     21  CB        30.6150   71.0580   41.9890 C.3     9  PRO9        0.0310
     22  CG        29.8840   72.3450   41.8860 C.3     9  PRO9        0.0237
     23  CD        29.5590   72.4270   40.4100 C.3     9  PRO9        0.0939
     24  N         33.1500   69.5770   39.8250 N.am   10  GLY10      -0.1941
     25  CA        33.6470   68.2990   39.3450 C.3    10  GLY10       0.2014
     26  C         33.6310   68.0910   37.8410 C.2    10  GLY10       0.2640
     27  O         34.1220   67.0670   37.3670 O.2    10  GLY10      -0.2714
     28  N         33.1030   69.0500   37.0820 N.am   11  SER11      -0.1935
     29  CA        33.0490   68.9220   35.6270 C.3    11  SER11       0.2055
     30  C         34.4160   68.8940   34.9240 C.2    11  SER11       0.2643
     31  O         34.5080   68.5180   33.7530 O.2    11  SER11      -0.2714
     32  CB        32.1310   69.9820   35.0180 C.3    11  SER11       0.2130
     33  OG        32.3880   71.2710   35.5380 O.3    11  SER11      -0.2179
     34  N         35.4710   69.2570   35.6540 N.am   12  TRP12      -0.1960
     35  CA        36.8470   69.2600   35.1400 C.3    12  TRP12       0.1756
     36  C         37.6930   68.5030   36.1610 C.2    12  TRP12       0.2462
     37  O         38.4630   69.1000   36.9220 O.2    12  TRP12      -0.2730
     38  CB        37.3560   70.6950   34.9920 C.3    12  TRP12       0.0590
     39  CG        36.4950   71.5290   34.0960 C.ar   12  TRP12       0.0006
     40  CD1       35.6870   72.5690   34.4690 C.ar   12  TRP12       0.0946
     41  CD2       36.3330   71.3790   32.6790 C.ar   12  TRP12       0.0152
     42  NE1       35.0330   73.0710   33.3700 N.ar   12  TRP12      -0.2442
     43  CE2       35.4070   72.3610   32.2590 C.ar   12  TRP12       0.0810
     44  CE3       36.8780   70.5120   31.7230 C.ar   12  TRP12       0.0012
     45  CZ2       35.0120   72.4980   30.9220 C.ar   12  TRP12       0.0191
     46  CZ3       36.4890   70.6470   30.3960 C.ar   12  TRP12       0.0001
     47  CH2       35.5630   71.6340   30.0080 C.ar   12  TRP12       0.0015
     48  N         37.5810   67.1650   36.1630 N.am   13  PRO13      -0.2716
     49  CA        38.2730   66.2280   37.0530 C.3    13  PRO13       0.1536
     50  C         39.8030   66.2410   37.0920 C.2    13  PRO13       0.2598
     51  O         40.3910   65.9170   38.1260 O.2    13  PRO13      -0.2715
     52  CB        37.7040   64.8760   36.6190 C.3    13  PRO13       0.0310
     53  CG        37.4410   65.0840   35.1650 C.3    13  PRO13       0.0237
     54  CD        36.8070   66.4330   35.1430 C.3    13  PRO13       0.0939
     55  N         40.4470   66.6050   35.9860 N.am   14  TRP14      -0.1974
     56  CA        41.9160   66.6460   35.9250 C.3    14  TRP14       0.1640
     57  C         42.5420   67.8810   36.5490 C.2    14  TRP14       0.2290
     58  O         43.7260   67.8810   36.8920 O.2    14  TRP14      -0.2864
     59  CB        42.3890   66.5540   34.4850 C.3    14  TRP14       0.0576
     60  CG        41.6150   67.4210   33.5700 C.ar   14  TRP14       0.0006
     61  CD1       41.8200   68.7430   33.3170 C.ar   14  TRP14       0.0946
     62  CD2       40.5260   67.0120   32.7400 C.ar   14  TRP14       0.0152
     63  NE1       40.9320   69.1820   32.3670 N.ar   14  TRP14      -0.2442
     64  CE2       40.1260   68.1380   31.9950 C.ar   14  TRP14       0.0810
     65  CE3       39.8500   65.7970   32.5490 C.ar   14  TRP14       0.0012
     66  CZ2       39.0800   68.0880   31.0700 C.ar   14  TRP14       0.0191
     67  CZ3       38.8120   65.7480   31.6340 C.ar   14  TRP14       0.0001
     68  CH2       38.4370   66.8870   30.9050 C.ar   14  TRP14       0.0015
     69  N         47.1960   63.6140   34.0850 N.3    32  ILE32      -0.1245
     70  CA        47.2250   62.9140   32.8080 C.3    32  ILE32       0.1561
     71  C         47.0670   61.4170   33.0750 C.2    32  ILE32       0.2260
     72  O         46.7490   60.6360   32.1780 O.2    32  ILE32      -0.2867
     73  CB        48.4990   63.2300   31.9960 C.3    32  ILE32       0.0252
     74  CG1       49.7600   62.9000   32.7900 C.3    32  ILE32       0.0019
     75  CG2       48.4970   64.6990   31.5990 C.3    32  ILE32       0.0019
     76  CD1       51.0230   63.0020   31.9580 C.3    32  ILE32       0.0001
     77  N         37.9930   58.8750   40.5250 N.3   100  SER100     -0.1202
     78  CA        36.5680   58.8530   40.8010 C.3   100  SER100      0.2020
     79  C         35.9140   59.7950   39.8050 C.2   100  SER100      0.2619
     80  O         36.5090   60.1130   38.7680 O.2   100  SER100     -0.2717
     81  CB        36.2900   59.3120   42.2460 C.3   100  SER100      0.2103
     82  OG        36.6210   60.6780   42.4590 O.3   100  SER100     -0.2182
     83  N         34.7010   60.2470   40.1130 N.am  101  GLN101     -0.1965
     84  CA        33.9830   61.1580   39.2290 C.3   101  GLN101      0.1733
     85  C         34.6920   62.4930   39.1480 C.2   101  GLN101      0.2617
     86  O         34.9640   63.0050   38.0660 O.2   101  GLN101     -0.2715
     87  CB        32.5590   61.3960   39.7290 C.3   101  GLN101      0.0408
     88  CG        31.5920   60.2610   39.4770 C.3   101  GLN101      0.0908
     89  CD        30.1510   60.7390   39.4960 C.2   101  GLN101      0.2608
     90  OE1       29.3940   60.5020   38.5510 O.2   101  GLN101     -0.2717
     91  NE2       29.7710   61.4400   40.5620 N.am  101  GLN101     -0.0878
     92  N         35.0430   63.0080   40.3150 N.am  102  THR102     -0.1951
     93  CA        35.6990   64.2970   40.4520 C.3   102  THR102      0.1897
     94  C         37.2310   64.3150   40.2750 C.2   102  THR102      0.2313
     95  O         37.8580   65.3750   40.3450 O.2   102  THR102     -0.2863
     96  CB        35.3100   64.8930   41.8100 C.3   102  THR102      0.1794
     97  OG1       35.5080   63.9020   42.8290 O.3   102  THR102     -0.2208
     98  CG2       33.8310   65.2870   41.7990 C.3   102  THR102      0.0378
     99  N         39.9220   62.6170   37.5310 N.3   104  SER104     -0.1202
    100  CA        40.2730   61.8060   36.3730 C.3   104  SER104      0.2020
    101  C         41.2750   62.5450   35.4740 C.2   104  SER104      0.2619
    102  O         41.6460   63.6890   35.7610 O.2   104  SER104     -0.2717
    103  CB        39.0290   61.3380   35.6050 C.3   104  SER104      0.2103
    104  OG        38.4250   62.3740   34.8540 O.3   104  SER104     -0.2182
    105  N         41.7080   61.8910   34.3970 N.am  105  ALA105     -0.1965
    106  CA        42.7130   62.4560   33.4980 C.3   105  ALA105      0.1728
    107  C         42.2180   63.1150   32.2130 C.2   105  ALA105      0.2616
    108  O         41.1030   62.8770   31.7510 O.2   105  ALA105     -0.2715
    109  CB        43.7510   61.3890   33.1630 C.3   105  ALA105      0.0334
    110  N         43.0760   63.9550   31.6490 N.am  106  VAL106     -0.1963
    111  CA        42.8000   64.6520   30.4020 C.3   106  VAL106      0.1727
    112  C         43.5840   63.8710   29.3740 C.2   106  VAL106      0.2616
    113  O         44.5910   63.2510   29.7050 O.2   106  VAL106     -0.2715
    114  CB        43.3370   66.1300   30.4300 C.3   106  VAL106      0.0290
    115  CG1       44.8670   66.1610   30.5360 C.3   106  VAL106      0.0023
    116  CG2       42.8800   66.9020   29.2000 C.3   106  VAL106      0.0023
    117  N         43.1070   63.8650   28.1410 N.am  107  CYS107     -0.1968
    118  CA        43.8040   63.1670   27.0800 C.3   107  CYS107      0.1712
    119  C         44.9640   64.0310   26.6250 C.2   107  CYS107      0.2296
    120  O         44.8840   65.2570   26.6830 O.2   107  CYS107     -0.2864
    121  CB        42.8610   62.9220   25.9000 C.3   107  CYS107      0.0983
    122  SG        41.3930   61.9470   26.3470 S.3   107  CYS107     -0.0798
    123  N         37.2760   76.4950   18.7990 N.3   120  THR120     -0.1203
    124  CA        36.9120   77.0200   20.1120 C.3   120  THR120      0.1994
    125  C         37.1880   75.9730   21.2030 C.2   120  THR120      0.2618
    126  O         36.7830   74.8120   21.0770 O.2   120  THR120     -0.2717
    127  CB        35.4320   77.4870   20.1150 C.3   120  THR120      0.1784
    128  OG1       35.0540   77.9410   21.4190 O.3   120  THR120     -0.2211
    129  CG2       34.5090   76.3750   19.6560 C.3   120  THR120      0.0376
    130  N         37.9020   76.3780   22.2520 N.am  121  CYS121     -0.1955
    131  CA        38.2620   75.4790   23.3470 C.3   121  CYS121      0.1843
    132  C         37.8770   76.0770   24.6920 C.2   121  CYS121      0.2625
    133  O         37.2480   77.1340   24.7440 O.2   121  CYS121     -0.2714
    134  CB        39.7650   75.2310   23.3200 C.3   121  CYS121      0.0997
    135  SG        40.3950   74.7340   21.6890 S.3   121  CYS121     -0.0797
    136  N         38.2570   75.3990   25.7770 N.am  122  VAL122     -0.1977
    137  CA        37.9720   75.8580   27.1460 C.3   122  VAL122      0.1596
    138  C         39.2510   75.8220   28.0030 C.2   122  VAL122      0.2287
    139  O         40.1260   74.9800   27.7930 O.2   122  VAL122     -0.2864
    140  CB        36.8800   74.9670   27.8290 C.3   122  VAL122      0.0276
    141  CG1       36.6510   75.3730   29.2970 C.3   122  VAL122      0.0022
    142  CG2       35.5810   75.0550   27.0660 C.3   122  VAL122      0.0022
@<TRIPOS>BOND
     1   123   124    1
     2   129   127    1
     3   124   127    1
     4   124   125    1
     5   127   128    1
     6   126   125    2
     7   125   130   am
     8   135   134    1
     9   130   131    1
    10   134   131    1
    11   131   132    1
    12   132   133    2
    13   132   136   am
    14   136   137    1
    15   121   122    1
    16   121   118    1
    17   119   120    2
    18   119   118    1
    19   142   140    1
    20   118   117    1
    21   137   140    1
    22   137   138    1
    23   139   138    2
    24   140   141    1
    25   117   112   am
    26   116   114    1
    27   112   113    2
    28   112   111    1
    29    47    46   ar
    30    47    45   ar
    31    46    44   ar
    32   111   114    1
    33   111   110    1
    34   114   115    1
    35     9     7   ar
    36    68    66   ar
    37    68    67   ar
    38    45    43   ar
    39     8     7   ar
    40    66    64   ar
    41     7     6    1
    42    75    73    1
    43    67    65   ar
    44   110   107   am
    45    44    41   ar
    46   108   107    2
    47    76    74    1
    48    64    63   ar
    49    64    62   ar
    50    73    74    1
    51    73    70    1
    52    72    71    2
    53   107   106    1
    54    43    41   ar
    55    43    42   ar
    56    63    61   ar
    57    65    62   ar
    58    41    39   ar
    59    62    60   ar
    60     6     5    1
    61    70    71    1
    62    70    69    1
    63   109   106    1
    64    61    60   ar
    65    42    40   ar
    66     1     2    1
    67     5     2    1
    68   106   105    1
    69    60    59    1
    70    31    30    2
    71    39    40   ar
    72    39    38    1
    73     2     3    1
    74   105   101   am
    75    59    56    1
    76   104   103    1
    77    30    29    1
    78    30    34   am
    79    38    35    1
    80    32    33    1
    81    32    29    1
    82     4     3    2
    83    35    34    1
    84    35    36    1
    85    54    53    1
    86    54    48    1
    87    53    52    1
    88   101   102    2
    89   101   100    1
    90   103   100    1
    91    29    28    1
    92    16    14    1
    93    56    55    1
    94    56    57    1
    95    55    50   am
    96    36    48   am
    97    36    37    2
    98    48    49    1
    99   100    99    1
   100    57    58    2
   101    14    15    1
   102    14    11    1
   103    52    49    1
   104    10    11    1
   105    49    50    1
   106    28    26   am
   107    50    51    2
   108    27    26    2
   109    11    12    1
   110    26    25    1
   111    86    85    2
   112    13    12    2
   113    12    17   am
   114    90    89    2
   115    80    79    2
   116    85    84    1
   117    85    92   am
   118    84    87    1
   119    84    83    1
   120    25    24    1
   121    88    89    1
   122    88    87    1
   123    89    91   am
   124    17    23    1
   125    17    18    1
   126    79    83   am
   127    79    78    1
   128    24    19   am
   129    94    95    2
   130    94    93    1
   131    19    20    2
   132    19    18    1
   133    92    93    1
   134    23    22    1
   135    93    96    1
   136    77    78    1
   137    18    21    1
   138    78    81    1
   139    98    96    1
   140    96    97    1
   141    22    21    1
   142    81    82    1
