@<TRIPOS>MOLECULE
tmp/1ca9B00.pdb
 184 181 0 0 0
SMALL
GASTEIGER

@<TRIPOS>ATOM
      1  N         12.2070   12.2700  -17.1300 N.3    67  PHE67      -0.1241
      2  CA        11.7700   11.0570  -16.4370 C.3    67  PHE67       0.1605
      3  C         12.2780   11.1590  -15.0030 C.2    67  PHE67       0.2264
      4  O         13.2860   11.8100  -14.7390 O.2    67  PHE67      -0.2867
      5  CB        12.3860    9.7780  -17.0210 C.3    67  PHE67       0.0534
      6  CG        11.8580    9.3850  -18.3680 C.ar   67  PHE67      -0.0203
      7  CD1       10.5930    8.8240  -18.4940 C.ar   67  PHE67      -0.0042
      8  CD2       12.6330    9.5500  -19.5110 C.ar   67  PHE67      -0.0042
      9  CE1       10.1050    8.4330  -19.7310 C.ar   67  PHE67      -0.0003
     10  CE2       12.1510    9.1600  -20.7580 C.ar   67  PHE67      -0.0003
     11  CZ        10.8840    8.6010  -20.8670 C.ar   67  PHE67      -0.0000
     12  N          7.0300   10.8490  -15.6460 N.3    83  ARG83      -0.1245
     13  CA         7.5600   11.6880  -16.7120 C.3    83  ARG83       0.1563
     14  C          6.7760   12.9900  -16.6750 C.2    83  ARG83       0.2260
     15  O          5.5460   12.9820  -16.6270 O.2    83  ARG83      -0.2867
     16  CB         7.4060   11.0310  -18.0820 C.3    83  ARG83       0.0307
     17  CG         8.1690   11.7840  -19.1650 C.3    83  ARG83       0.0489
     18  CD         8.0730   11.1330  -20.5540 C.3    83  ARG83       0.2205
     19  NE         9.1740   11.5970  -21.3950 N.pl3  83  ARG83      -0.0865
     20  CZ         9.3920   11.2190  -22.6490 C.cat  83  ARG83       0.5346
     21  NH1        8.5860   10.3570  -23.2520 N.pl3  83  ARG83       0.1354
     22  NH2       10.4410   11.6970  -23.2980 N.pl3  83  ARG83       0.1354
     23  N          6.2680   17.1320  -18.2240 N.3    85  TYR85      -0.1241
     24  CA         6.5000   18.1390  -19.2580 C.3    85  TYR85       0.1605
     25  C          6.3160   19.4860  -18.5740 C.2    85  TYR85       0.2264
     26  O          5.1920   19.9410  -18.3880 O.2    85  TYR85      -0.2867
     27  CB         5.4960   18.0190  -20.4160 C.3    85  TYR85       0.0534
     28  CG         5.7160   16.8390  -21.3460 C.ar   85  TYR85      -0.0201
     29  CD1        5.4350   15.5310  -20.9390 C.ar   85  TYR85      -0.0009
     30  CD2        6.1850   17.0360  -22.6410 C.ar   85  TYR85      -0.0009
     31  CE1        5.6110   14.4520  -21.8040 C.ar   85  TYR85       0.0417
     32  CE2        6.3650   15.9640  -23.5150 C.ar   85  TYR85       0.0417
     33  CZ         6.0780   14.6800  -23.0930 C.ar   85  TYR85       0.1957
     34  OH         6.2710   13.6340  -23.9680 O.3    85  TYR85      -0.2866
     35  N          2.0080   19.1020  -22.5540 N.3    89  ASP89      -0.1225
     36  CA         2.0030   18.1390  -23.6380 C.3    89  ASP89       0.1805
     37  C          0.5520   17.9600  -24.0550 C.2    89  ASP89       0.2598
     38  O         -0.3550   18.1020  -23.2330 O.2    89  ASP89      -0.2718
     39  CB         2.5430   16.7940  -23.1530 C.3    89  ASP89       0.1424
     40  CG         2.3370   15.6850  -24.1690 C.2    89  ASP89       0.3668
     41  OD1        3.0070   15.6980  -25.2240 O.co2  89  ASP89      -0.2456
     42  OD2        1.4840   14.8070  -23.9190 O.co2  89  ASP89      -0.2456
     43  N          0.3400   17.6320  -25.3280 N.am   90  GLY90      -0.1942
     44  CA        -1.0060   17.4280  -25.8330 C.3    90  GLY90       0.2014
     45  C         -1.9270   18.5940  -25.5360 C.2    90  GLY90       0.2639
     46  O         -1.5740   19.7540  -25.7710 O.2    90  GLY90      -0.2714
     47  N         -3.1100   18.2820  -25.0110 N.am   91  THR91      -0.1950
     48  CA        -4.1000   19.2970  -24.6800 C.3    91  THR91       0.1897
     49  C         -3.5880   20.2730  -23.6310 C.2    91  THR91       0.2313
     50  O         -4.2950   21.2050  -23.2640 O.2    91  THR91      -0.2863
     51  CB        -5.4050   18.6740  -24.1370 C.3    91  THR91       0.1794
     52  OG1       -5.1510   18.0280  -22.8810 O.3    91  THR91      -0.2208
     53  CG2       -5.9670   17.6570  -25.1260 C.3    91  THR91       0.0378
     54  N         -0.2270   21.5320  -23.8600 N.3    93  ARG93      -0.1245
     55  CA         0.9520   22.1760  -24.4130 C.3    93  ARG93       0.1563
     56  C          0.9740   23.6910  -24.2140 C.2    93  ARG93       0.2260
     57  O          0.0820   24.4110  -24.6690 O.2    93  ARG93      -0.2867
     58  CB         1.0830   21.8400  -25.9000 C.3    93  ARG93       0.0307
     59  CG         2.4480   22.2350  -26.4610 C.3    93  ARG93       0.0489
     60  CD         2.5700   21.9430  -27.9320 C.3    93  ARG93       0.2205
     61  NE         2.1760   20.5820  -28.2640 N.pl3  93  ARG93      -0.0865
     62  CZ         2.9440   19.5120  -28.1000 C.cat  93  ARG93       0.5346
     63  NH1        4.1670   19.6320  -27.5990 N.pl3  93  ARG93       0.1354
     64  NH2        2.4930   18.3230  -28.4760 N.pl3  93  ARG93       0.1354
     65  N          2.8200   12.3510  -16.3150 N.3   100  PHE100     -0.1241
     66  CA         2.3860   10.9970  -16.6600 C.3   100  PHE100      0.1605
     67  C          3.0070    9.8900  -15.8140 C.2   100  PHE100      0.2264
     68  O          4.0390   10.0750  -15.1630 O.2   100  PHE100     -0.2867
     69  CB         2.6460   10.6950  -18.1400 C.3   100  PHE100      0.0534
     70  CG         2.0700   11.7220  -19.0760 C.ar  100  PHE100     -0.0203
     71  CD1        2.7590   12.9040  -19.3470 C.ar  100  PHE100     -0.0042
     72  CD2        0.8090   11.5440  -19.6320 C.ar  100  PHE100     -0.0042
     73  CE1        2.2000   13.8920  -20.1540 C.ar  100  PHE100     -0.0003
     74  CE2        0.2380   12.5280  -20.4410 C.ar  100  PHE100     -0.0003
     75  CZ         0.9370   13.7030  -20.7000 C.ar  100  PHE100     -0.0000
     76  N         -4.6070   14.8760   -8.0770 N.3   135  ASP135     -0.1225
     77  CA        -5.3990   14.2810   -9.1380 C.3   135  ASP135      0.1805
     78  C         -5.1240   12.7830   -9.1210 C.2   135  ASP135      0.2598
     79  O         -4.1000   12.3430   -8.5930 O.2   135  ASP135     -0.2718
     80  CB        -5.0400   14.9060  -10.4840 C.3   135  ASP135      0.1424
     81  CG        -6.1010   14.6540  -11.5430 C.2   135  ASP135      0.3668
     82  OD1       -7.0290   13.8590  -11.2780 O.co2 135  ASP135     -0.2456
     83  OD2       -6.0120   15.2470  -12.6400 O.co2 135  ASP135     -0.2456
     84  N         -6.0430   11.9950   -9.6700 N.am  136  ALA136     -0.1966
     85  CA        -5.8820   10.5470   -9.6770 C.3   136  ALA136      0.1728
     86  C         -6.5620    9.9130  -10.8800 C.2   136  ALA136      0.2616
     87  O         -7.3230   10.5600  -11.5950 O.2   136  ALA136     -0.2715
     88  CB        -6.4480    9.9570   -8.3910 C.3   136  ALA136      0.0334
     89  N         -6.2770    8.6350  -11.1010 N.am  137  PHE137     -0.1960
     90  CA        -6.8750    7.9200  -12.2150 C.3   137  PHE137      0.1771
     91  C         -6.7190    6.4200  -12.0480 C.2   137  PHE137      0.2619
     92  O         -5.8310    5.9580  -11.3280 O.2   137  PHE137     -0.2715
     93  CB        -6.2130    8.3560  -13.5290 C.3   137  PHE137      0.0574
     94  CG        -4.7960    7.8520  -13.7040 C.ar  137  PHE137     -0.0200
     95  CD1       -4.5430    6.5060  -13.9800 C.ar  137  PHE137     -0.0042
     96  CD2       -3.7170    8.7130  -13.5570 C.ar  137  PHE137     -0.0042
     97  CE1       -3.2430    6.0350  -14.1020 C.ar  137  PHE137     -0.0003
     98  CE2       -2.4120    8.2490  -13.6770 C.ar  137  PHE137     -0.0003
     99  CZ        -2.1740    6.9100  -13.9490 C.ar  137  PHE137     -0.0000
    100  N         -7.5980    5.6660  -12.6980 N.am  138  ARG138     -0.1964
    101  CA        -7.5020    4.2210  -12.6660 C.3   138  ARG138      0.1714
    102  C         -7.0990    3.8490  -14.0830 C.2   138  ARG138      0.2458
    103  O         -7.4830    4.5120  -15.0460 O.2   138  ARG138     -0.2730
    104  CB        -8.8270    3.5580  -12.2650 C.3   138  ARG138      0.0347
    105  CG        -9.2320    3.7370  -10.7940 C.3   138  ARG138      0.0492
    106  CD       -10.4330    2.8780  -10.4230 C.3   138  ARG138      0.2205
    107  NE       -10.9150    3.0560   -9.0430 N.pl3 138  ARG138     -0.0865
    108  CZ       -10.3010    2.6400   -7.9300 C.cat 138  ARG138      0.5346
    109  NH1       -9.1410    1.9990   -7.9690 N.pl3 138  ARG138      0.1354
    110  NH2      -10.8750    2.8380   -6.7530 N.pl3 138  ARG138      0.1354
    111  N         -6.2750    2.8140  -14.2210 N.am  139  PRO139     -0.2716
    112  CA        -5.8100    2.3640  -15.5250 C.3   139  PRO139      0.1536
    113  C         -6.9140    1.7910  -16.4020 C.2   139  PRO139      0.2598
    114  O         -7.8590    1.1560  -15.9190 O.2   139  PRO139     -0.2715
    115  CB        -4.7680    1.3080  -15.1580 C.3   139  PRO139      0.0310
    116  CG        -4.3240    1.7380  -13.7860 C.3   139  PRO139      0.0237
    117  CD        -5.6710    1.9850  -13.1760 C.3   139  PRO139      0.0939
    118  N         -6.7920    2.0390  -17.6990 N.am  140  ASP140     -0.1972
    119  CA        -7.7390    1.5010  -18.6590 C.3   140  ASP140      0.1709
    120  C         -7.2040    0.1340  -19.0630 C.2   140  ASP140      0.2293
    121  O         -6.3490    0.0190  -19.9390 O.2   140  ASP140     -0.2864
    122  CB        -7.8610    2.4080  -19.8830 C.3   140  ASP140      0.1436
    123  CG        -8.6440    1.7560  -21.0060 C.2   140  ASP140      0.3671
    124  OD1       -9.6510    1.0690  -20.7110 O.co2 140  ASP140     -0.2456
    125  OD2       -8.2590    1.9410  -22.1780 O.co2 140  ASP140     -0.2456
    126  N         -5.8860   -0.2900  -22.4100 N.3   143  SER143     -0.1202
    127  CA        -4.7950    0.4930  -22.9880 C.3   143  SER143      0.2020
    128  C         -3.5180   -0.3330  -23.0160 C.2   143  SER143      0.2619
    129  O         -3.4000   -1.3150  -22.2800 O.2   143  SER143     -0.2717
    130  CB        -4.5470    1.7650  -22.1790 C.3   143  SER143      0.2103
    131  OG        -3.4120    2.4530  -22.6880 O.3   143  SER143     -0.2182
    132  N         -2.5530    0.0640  -23.8430 N.am  144  SER144     -0.1937
    133  CA        -1.3050   -0.6890  -23.9260 C.3   144  SER144      0.2055
    134  C         -0.2710   -0.1700  -22.9380 C.2   144  SER144      0.2644
    135  O          0.8580   -0.6680  -22.8750 O.2   144  SER144     -0.2714
    136  CB        -0.7260   -0.6360  -25.3400 C.3   144  SER144      0.2130
    137  OG        -0.2700    0.6620  -25.6570 O.3   144  SER144     -0.2179
    138  N         -0.6540    0.8390  -22.1710 N.am  145  SER145     -0.1935
    139  CA         0.2550    1.4050  -21.1850 C.3   145  SER145      0.2055
    140  C          0.3840    0.4590  -20.0030 C.2   145  SER145      0.2643
    141  O          1.4450    0.3580  -19.3920 O.2   145  SER145     -0.2714
    142  CB        -0.2690    2.7540  -20.6800 C.3   145  SER145      0.2130
    143  OG        -0.3510    3.7080  -21.7190 O.3   145  SER145     -0.2179
    144  N         -0.6970   -0.2500  -19.6980 N.am  146  PHE146     -0.1973
    145  CA        -0.7030   -1.1400  -18.5520 C.3   146  PHE146      0.1639
    146  C         -0.5810   -2.6320  -18.8490 C.2   146  PHE146      0.2290
    147  O         -0.9430   -3.4670  -18.0220 O.2   146  PHE146     -0.2864
    148  CB        -1.9480   -0.8400  -17.7210 C.3   146  PHE146      0.0560
    149  CG        -2.2100    0.6320  -17.5770 C.ar  146  PHE146     -0.0200
    150  CD1       -1.5240    1.3830  -16.6340 C.ar  146  PHE146     -0.0042
    151  CD2       -3.0520    1.2900  -18.4610 C.ar  146  PHE146     -0.0042
    152  CE1       -1.6680    2.7600  -16.5820 C.ar  146  PHE146     -0.0003
    153  CE2       -3.2020    2.6720  -18.4120 C.ar  146  PHE146     -0.0003
    154  CZ        -2.5080    3.4050  -17.4730 C.ar  146  PHE146     -0.0000
    155  N          3.9670    2.7710  -23.0580 N.3   155  ILE155     -0.1231
    156  CA         3.6120    4.1440  -23.3870 C.3   155  ILE155      0.1692
    157  C          3.0660    4.7860  -22.1230 C.2   155  ILE155      0.2592
    158  O          2.2560    4.1870  -21.4150 O.2   155  ILE155     -0.2718
    159  CB         2.5380    4.2350  -24.4980 C.3   155  ILE155      0.0266
    160  CG1        3.0650    3.6080  -25.7900 C.3   155  ILE155      0.0019
    161  CG2        2.1770    5.7020  -24.7520 C.3   155  ILE155      0.0020
    162  CD1        2.1450    3.7970  -26.9980 C.3   155  ILE155      0.0001
    163  N          3.5240    6.0020  -21.8490 N.am  156  ALA156     -0.1966
    164  CA         3.0960    6.7490  -20.6780 C.3   156  ALA156      0.1728
    165  C          1.6710    7.2830  -20.8040 C.2   156  ALA156      0.2617
    166  O          1.1730    7.5280  -21.9050 O.2   156  ALA156     -0.2715
    167  CB         4.0490    7.8960  -20.4310 C.3   156  ALA156      0.0334
    168  N          1.0160    7.4570  -19.6650 N.am  157  SER157     -0.1936
    169  CA        -0.3370    7.9870  -19.6460 C.3   157  SER157      0.2055
    170  C         -0.5740    8.5770  -18.2670 C.2   157  SER157      0.2643
    171  O         -0.0060    8.1090  -17.2840 O.2   157  SER157     -0.2714
    172  CB        -1.3630    6.8860  -19.9160 C.3   157  SER157      0.2130
    173  OG        -1.4920    6.0380  -18.7960 O.3   157  SER157     -0.2179
    174  N         -1.4040    9.6090  -18.1930 N.am  158  GLY158     -0.1954
    175  CA        -1.6680   10.2220  -16.9130 C.3   158  GLY158      0.1869
    176  C         -2.5720   11.4290  -16.9850 C.2   158  GLY158      0.2309
    177  O         -3.7460   11.3080  -17.3230 O.2   158  GLY158     -0.2863
    178  N         -2.5650   15.1510  -18.7280 N.3   160  PRO160     -0.2116
    179  CA        -2.0100   16.2200  -19.5650 C.3   160  PRO160      0.1372
    180  C         -2.3090   17.6120  -19.0050 C.2   160  PRO160      0.2244
    181  O         -1.5400   18.5520  -19.2080 O.2   160  PRO160     -0.2868
    182  CB        -2.6770   15.9660  -20.9190 C.3   160  PRO160      0.0268
    183  CG        -4.0070   15.3610  -20.5180 C.3   160  PRO160      0.0207
    184  CD        -3.5260   14.3480  -19.5050 C.3   160  PRO160      0.0892
@<TRIPOS>BOND
     1    64    62    1
     2    61    62    2
     3    61    60    1
     4    62    63    1
     5    60    59    1
     6   162   160    1
     7    59    58    1
     8    58    55    1
     9    44    45    1
    10    44    43    1
    11   160   159    1
    12    46    45    2
    13   137   136    1
    14    45    47   am
    15   136   133    1
    16    43    37   am
    17    41    40   ar
    18    53    51    1
    19    47    48    1
    20   161   159    1
    21    48    51    1
    22    48    49    1
    23    57    56    2
    24   159   156    1
    25    55    56    1
    26    55    54    1
    27    40    42   ar
    28    40    39    1
    29    51    52    1
    30    37    36    1
    31    37    38    2
    32    34    33    1
    33   133   132    1
    34   133   134    1
    35   132   128   am
    36    36    39    1
    37    36    35    1
    38    49    50    2
    39    32    33   ar
    40    32    30   ar
    41   156   155    1
    42   156   157    1
    43    22    20    1
    44    21    20    1
    45    33    31   ar
    46   128   127    1
    47   128   129    2
    48   127   126    1
    49   127   130    1
    50   134   135    2
    51   134   138   am
    52   131   130    1
    53    20    19    2
    54    30    28   ar
    55   125   123   ar
    56   138   139    1
    57   157   163   am
    58   157   158    2
    59   166   165    2
    60   163   164    1
    61    31    29   ar
    62   143   142    1
    63    19    18    1
    64    28    29   ar
    65    28    27    1
    66   139   142    1
    67   139   140    1
    68   123   124   ar
    69   123   122    1
    70   182   183    1
    71   182   179    1
    72    11    10   ar
    73    11     9   ar
    74   165   164    1
    75   165   168   am
    76    10     8   ar
    77    75    74   ar
    78    75    73   ar
    79   164   167    1
    80    18    17    1
    81   183   184    1
    82    74    72   ar
    83    27    24    1
    84    73    71   ar
    85   140   144   am
    86   140   141    2
    87   121   120    2
    88   172   169    1
    89   172   173    1
    90   122   119    1
    91     9     7   ar
    92   144   145    1
    93   168   169    1
    94   169   170    1
    95    72    70   ar
    96   179   180    1
    97   179   178    1
    98     8     6   ar
    99   184   178    1
   100    71    70   ar
   101    24    25    1
   102    24    23    1
   103   181   180    2
   104    17    16    1
   105    70    69    1
   106   120   119    1
   107   146   145    1
   108   146   147    2
   109   119   118    1
   110    25    26    2
   111   145   148    1
   112     7     6   ar
   113   151   153   ar
   114   151   149   ar
   115   153   154   ar
   116     6     5    1
   117   170   174   am
   118   170   171    2
   119   174   175    1
   120    69    66    1
   121    16    13    1
   122   148   149    1
   123   118   113   am
   124   149   150   ar
   125   154   152   ar
   126   177   176    2
   127     1     2    1
   128     5     2    1
   129   176   175    1
   130    13    14    1
   131    13    12    1
   132    14    15    2
   133    66    65    1
   134    66    67    1
   135   150   152   ar
   136     2     3    1
   137   113   114    2
   138   113   112    1
   139    67    68    2
   140   112   115    1
   141   112   111    1
   142   115   116    1
   143   103   102    2
   144     3     4    2
   145   111   102   am
   146   111   117    1
   147    97    95   ar
   148    97    99   ar
   149   102   101    1
   150    95    94   ar
   151    99    98   ar
   152   116   117    1
   153    94    96   ar
   154    94    93    1
   155    98    96   ar
   156    93    90    1
   157   100   101    1
   158   100    91   am
   159   101   104    1
   160    83    81   ar
   161   104   105    1
   162    90    91    1
   163    90    89    1
   164    91    92    2
   165    87    86    2
   166    81    82   ar
   167    81    80    1
   168    89    86   am
   169    86    85    1
   170   105   106    1
   171    80    77    1
   172   106   107    1
   173    85    84    1
   174    85    88    1
   175    84    78   am
   176    77    78    1
   177    77    76    1
   178    78    79    2
   179   107   108    2
   180   109   108    1
   181   108   110    1
