@<TRIPOS>MOLECULE
tmp/1cb0A00.pdb
 95 88 0 0 0
SMALL
GASTEIGER

@<TRIPOS>ATOM
      1  N         66.1060   13.7220   28.2610 N.3    86  ALA86      -0.1231
      2  CA        65.0980   13.3530   27.2860 C.3    86  ALA86       0.1694
      3  C         64.7240   14.6830   26.6310 C.2    86  ALA86       0.2592
      4  O         64.9820   15.7530   27.1910 O.2    86  ALA86      -0.2718
      5  CB        63.8830   12.7450   27.9840 C.3    86  ALA86       0.0304
      6  N         64.1430   14.6270   25.4440 N.am   87  CYS87      -0.1956
      7  CA        63.7360   15.8450   24.7620 C.3    87  CYS87       0.1843
      8  C         62.7540   15.5160   23.6570 C.2    87  CYS87       0.2626
      9  O         62.6100   14.3540   23.2580 O.2    87  CYS87      -0.2714
     10  CB        64.9550   16.5760   24.1750 C.3    87  CYS87       0.0997
     11  SG        65.7890   15.7070   22.8220 S.3    87  CYS87      -0.0797
     12  N         62.0280   16.5360   23.2140 N.am   88  GLY88      -0.1954
     13  CA        61.0840   16.3490   22.1320 C.3    88  GLY88       0.1869
     14  C         61.7680   16.8130   20.8640 C.2    88  GLY88       0.2309
     15  O         62.6190   17.7040   20.9070 O.2    88  GLY88      -0.2863
     16  N         62.3100   25.0080   28.0840 N.3   164  ILE164     -0.1245
     17  CA        61.1090   25.6590   28.5960 C.3   164  ILE164      0.1561
     18  C         61.0430   25.5090   30.1130 C.2   164  ILE164      0.2260
     19  O         61.6890   24.6330   30.6920 O.2   164  ILE164     -0.2867
     20  CB        59.8190   25.0900   27.9400 C.3   164  ILE164      0.0252
     21  CG1       59.6470   23.5990   28.2700 C.3   164  ILE164      0.0019
     22  CG2       59.8620   25.3190   26.4270 C.3   164  ILE164      0.0019
     23  CD1       58.4040   22.9470   27.6470 C.3   164  ILE164      0.0001
     24  N         53.8410   20.7460   29.1710 N.3   169  PHE169     -0.1241
     25  CA        54.4380   20.6310   27.8470 C.3   169  PHE169      0.1605
     26  C         53.9920   21.8750   27.0690 C.2   169  PHE169      0.2264
     27  O         53.1030   22.6090   27.5130 O.2   169  PHE169     -0.2867
     28  CB        53.9730   19.3580   27.1340 C.3   169  PHE169      0.0534
     29  CG        54.6160   18.1050   27.6600 C.ar  169  PHE169     -0.0203
     30  CD1       55.9880   17.8990   27.5130 C.ar  169  PHE169     -0.0042
     31  CD2       53.8570   17.1330   28.3100 C.ar  169  PHE169     -0.0042
     32  CE1       56.5980   16.7370   28.0090 C.ar  169  PHE169     -0.0003
     33  CE2       54.4550   15.9710   28.8080 C.ar  169  PHE169     -0.0003
     34  CZ        55.8290   15.7740   28.6570 C.ar  169  PHE169     -0.0000
     35  N         63.5950   20.1070   22.2290 N.3   186  ILE186     -0.1231
     36  CA        63.0360   20.8290   23.3610 C.3   186  ILE186      0.1692
     37  C         63.0510   20.0190   24.6550 C.2   186  ILE186      0.2592
     38  O         62.7270   18.8320   24.6580 O.2   186  ILE186     -0.2718
     39  CB        61.5800   21.2810   23.0280 C.3   186  ILE186      0.0266
     40  CG1       60.9540   22.0420   24.2000 C.3   186  ILE186      0.0019
     41  CG2       60.7120   20.0750   22.6230 C.3   186  ILE186      0.0020
     42  CD1       59.6750   22.7550   23.8170 C.3   186  ILE186      0.0001
     43  N         63.4640   20.6600   25.7460 N.am  187  ASN187     -0.1960
     44  CA        63.4890   20.0080   27.0550 C.3   187  ASN187      0.1819
     45  C         63.1970   21.0070   28.1810 C.2   187  ASN187      0.2621
     46  O         62.7840   22.1410   27.9190 O.2   187  ASN187     -0.2715
     47  CB        64.8090   19.2390   27.2890 C.3   187  ASN187      0.1195
     48  CG        65.9970   20.1400   27.6550 C.2   187  ASN187      0.2630
     49  OD1       65.9370   21.3660   27.5690 O.2   187  ASN187     -0.2716
     50  ND2       67.0940   19.5090   28.0580 N.am  187  ASN187     -0.0877
     51  N         63.4190   20.5900   29.4250 N.am  188  MET188     -0.1977
     52  CA        63.1540   21.4580   30.5680 C.3   188  MET188      0.1605
     53  C         64.3420   21.6290   31.5200 C.2   188  MET188      0.2287
     54  O         64.2140   22.3250   32.5260 O.2   188  MET188     -0.2864
     55  CB        61.9620   20.9050   31.3690 C.3   188  MET188      0.0413
     56  CG        60.6730   20.7330   30.5820 C.3   188  MET188      0.0598
     57  SD        59.2990   20.1050   31.5920 S.3   188  MET188     -0.1393
     58  CE        58.0840   19.6780   30.3250 C.3   188  MET188      0.0692
     59  N         62.5120   11.6050   22.4130 N.3   211  THR211     -0.1203
     60  CA        61.5150   10.6340   22.8600 C.3   211  THR211      0.1994
     61  C         60.1330   10.8110   22.2240 C.2   211  THR211      0.2617
     62  O         59.2470    9.9720   22.4090 O.2   211  THR211     -0.2717
     63  CB        61.3530   10.6860   24.4030 C.3   211  THR211      0.1784
     64  OG1       61.0000   12.0160   24.8090 O.3   211  THR211     -0.2211
     65  CG2       62.6460   10.2880   25.0920 C.3   211  THR211      0.0376
     66  N         59.9690   11.8850   21.4570 N.am  212  ASP212     -0.1973
     67  CA        58.6960   12.2100   20.8220 C.3   212  ASP212      0.1709
     68  C         58.8930   13.3700   19.8490 C.2   212  ASP212      0.2293
     69  O         59.9910   13.9120   19.7380 O.2   212  ASP212     -0.2864
     70  CB        57.6870   12.6310   21.9020 C.3   212  ASP212      0.1436
     71  CG        58.2040   13.7750   22.7660 C.2   212  ASP212      0.3671
     72  OD1       57.9970   14.9490   22.3900 O.co2 212  ASP212     -0.2456
     73  OD2       58.8440   13.5070   23.8080 O.co2 212  ASP212     -0.2456
     74  N         57.0180   16.1880   20.0970 N.3   214  ASP214     -0.1239
     75  CA        56.2940   17.2660   20.7660 C.3   214  ASP214      0.1674
     76  C         54.8480   17.2810   20.2380 C.2   214  ASP214      0.2266
     77  O         54.1710   16.2530   20.3010 O.2   214  ASP214     -0.2867
     78  CB        57.0110   18.6110   20.5680 C.3   214  ASP214      0.1410
     79  CG        56.5480   19.6770   21.5570 C.2   214  ASP214      0.3668
     80  OD1       56.3290   19.3570   22.7490 O.co2 214  ASP214     -0.2456
     81  OD2       56.4090   20.8430   21.1400 O.co2 214  ASP214     -0.2456
     82  N         52.9680   14.3920   22.3310 N.3   218  VAL218     -0.1245
     83  CA        53.6690   14.0310   23.5650 C.3   218  VAL218      0.1561
     84  C         52.8090   13.8610   24.8340 C.2   218  VAL218      0.2260
     85  O         51.7670   14.5030   25.0050 O.2   218  VAL218     -0.2867
     86  CB        54.8210   15.0550   23.8480 C.3   218  VAL218      0.0252
     87  CG1       54.2560   16.4560   24.0850 C.3   218  VAL218      0.0019
     88  CG2       55.6800   14.6100   25.0240 C.3   218  VAL218      0.0019
     89  N         56.8580    9.5060   26.6960 N.3   223  VAL223     -0.1245
     90  CA        58.2460    9.8220   27.0270 C.3   223  VAL223      0.1561
     91  C         58.9110    8.6570   27.7590 C.2   223  VAL223      0.2260
     92  O         59.9770    8.1930   27.3540 O.2   223  VAL223     -0.2867
     93  CB        58.3420   11.1020   27.8950 C.3   223  VAL223      0.0252
     94  CG1       59.7950   11.3840   28.2700 C.3   223  VAL223      0.0019
     95  CG2       57.7520   12.2900   27.1410 C.3   223  VAL223      0.0019
@<TRIPOS>BOND
     1    69    68    2
     2    68    67    1
     3    74    75    1
     4    76    77    2
     5    76    75    1
     6    78    75    1
     7    78    79    1
     8    67    66    1
     9    67    70    1
    10    14    15    2
    11    14    13    1
    12    81    79   ar
    13    66    61   am
    14    79    80   ar
    15    70    71    1
    16    13    12    1
    17    61    62    2
    18    61    60    1
    19    35    36    1
    20    82    83    1
    21    72    71   ar
    22    59    60    1
    23    41    39    1
    24    71    73   ar
    25    11    10    1
    26    60    63    1
    27    39    36    1
    28    39    40    1
    29    12     8   am
    30     9     8    2
    31    36    37    1
    32    83    86    1
    33    83    84    1
    34     8     7    1
    35    42    40    1
    36    86    87    1
    37    86    88    1
    38    10     7    1
    39    63    64    1
    40    63    65    1
    41    37    38    2
    42    37    43   am
    43     7     6    1
    44    84    85    2
    45     6     3   am
    46    43    44    1
    47    22    20    1
    48     3     4    2
    49     3     2    1
    50    89    90    1
    51    90    91    1
    52    90    93    1
    53    44    47    1
    54    44    45    1
    55    26    27    2
    56    26    25    1
    57    28    29    1
    58    28    25    1
    59    95    93    1
    60     2     5    1
    61     2     1    1
    62    47    48    1
    63    92    91    2
    64    30    29   ar
    65    30    32   ar
    66    49    48    2
    67    23    21    1
    68    48    50   am
    69    29    31   ar
    70    25    24    1
    71    93    94    1
    72    46    45    2
    73    20    21    1
    74    20    17    1
    75    32    34   ar
    76    16    17    1
    77    45    51   am
    78    31    33   ar
    79    17    18    1
    80    34    33   ar
    81    51    52    1
    82    18    19    2
    83    58    57    1
    84    52    55    1
    85    52    53    1
    86    56    55    1
    87    56    57    1
    88    53    54    2
