@<TRIPOS>MOLECULE
tmp/1cb7B01.pdb
 102 97 0 0 0
SMALL
GASTEIGER

@<TRIPOS>ATOM
      1  N          5.1790    0.2790   89.6170 N.3    66  ARG66      -0.1245
      2  CA         5.7280   -1.0380   89.3470 C.3    66  ARG66       0.1563
      3  C          7.1880   -1.0040   89.7840 C.2    66  ARG66       0.2260
      4  O          7.8840   -0.0090   89.5570 O.2    66  ARG66      -0.2867
      5  CB         5.6040   -1.4670   87.8740 C.3    66  ARG66       0.0307
      6  CG         4.1940   -1.5440   87.3280 C.3    66  ARG66       0.0489
      7  CD         4.0660   -2.2690   85.9800 C.3    66  ARG66       0.2205
      8  NE         2.6530   -2.6250   85.7960 N.pl3  66  ARG66      -0.0865
      9  CZ         1.7450   -1.8840   85.1830 C.cat  66  ARG66       0.5346
     10  NH1        2.0100   -0.7090   84.6340 N.pl3  66  ARG66       0.1354
     11  NH2        0.5020   -2.3410   85.1100 N.pl3  66  ARG66       0.1354
     12  N          7.0920   -6.2120   92.1660 N.3    94  THR94      -0.1218
     13  CA         7.0220   -6.8330   90.8550 C.3    94  THR94       0.1862
     14  C          7.9460   -8.0460   90.8830 C.2    94  THR94       0.2287
     15  O          9.1400   -7.8970   91.1670 O.2    94  THR94      -0.2866
     16  CB         7.3960   -5.8190   89.7690 C.3    94  THR94       0.1770
     17  OG1        6.4340   -4.7430   89.7590 O.3    94  THR94      -0.2211
     18  CG2        7.3570   -6.4640   88.3990 C.3    94  THR94       0.0375
     19  N          7.7860  -16.5780   87.7200 N.3   100  ARG100     -0.1245
     20  CA         6.4790  -16.7180   87.0840 C.3   100  ARG100      0.1563
     21  C          6.3540  -18.0270   86.3220 C.2   100  ARG100      0.2260
     22  O          5.2480  -18.4880   86.0220 O.2   100  ARG100     -0.2867
     23  CB         6.1980  -15.5180   86.1770 C.3   100  ARG100      0.0307
     24  CG         6.2400  -14.1660   86.8830 C.3   100  ARG100      0.0489
     25  CD         5.8670  -13.0270   85.9490 C.3   100  ARG100      0.2205
     26  NE         6.2290  -11.7140   86.4550 N.pl3 100  ARG100     -0.0865
     27  CZ         5.8080  -10.5460   85.9940 C.cat 100  ARG100      0.5346
     28  NH1        4.9780  -10.4860   84.9660 N.pl3 100  ARG100      0.1354
     29  NH2        6.2210   -9.4240   86.5670 N.pl3 100  ARG100      0.1354
     30  N          2.7450   -7.9840   92.3460 N.3   149  ARG149     -0.1231
     31  CA         2.3150   -7.7150   90.9730 C.3   149  ARG149      0.1694
     32  C          3.1700   -8.5690   90.0460 C.2   149  ARG149      0.2592
     33  O          4.3990   -8.5610   90.1480 O.2   149  ARG149     -0.2718
     34  CB         2.4050   -6.2260   90.6530 C.3   149  ARG149      0.0321
     35  CG         1.6130   -5.3110   91.5680 C.3   149  ARG149      0.0489
     36  CD         1.5160   -3.8760   91.0480 C.3   149  ARG149      0.2205
     37  NE         0.6030   -3.7820   89.9100 N.pl3 149  ARG149     -0.0865
     38  CZ        -0.7070   -3.6270   89.9390 C.cat 149  ARG149      0.5346
     39  NH1       -1.3960   -3.5250   91.0620 N.pl3 149  ARG149      0.1354
     40  NH2       -1.4180   -3.5640   88.8190 N.pl3 149  ARG149      0.1354
     41  N          2.5520   -9.3510   89.1630 N.am  150  HIS150     -0.1976
     42  CA         3.3580  -10.3240   88.4060 C.3   150  HIS150      0.1656
     43  C          2.6330  -10.7950   87.1610 C.2   150  HIS150      0.2291
     44  O          2.2490   -9.9300   86.3610 O.2   150  HIS150     -0.2864
     45  CB         3.7970  -11.4660   89.3390 C.3   150  HIS150      0.0771
     46  CG         2.7230  -12.1340   90.1290 C.ar  150  HIS150      0.0820
     47  ND1        2.3260  -13.4390   89.9250 N.ar  150  HIS150     -0.2267
     48  CD2        1.9470  -11.6820   91.1460 C.ar  150  HIS150      0.1154
     49  CE1        1.3640  -13.7520   90.7680 C.ar  150  HIS150      0.1986
     50  NE2        1.1120  -12.7010   91.5210 N.ar  150  HIS150     -0.2212
     51  N         -2.1720   -9.6790   92.9710 N.3   171  GLU171     -0.1245
     52  CA        -2.7360   -9.4100   91.6500 C.3   171  GLU171      0.1567
     53  C         -2.8160  -10.7020   90.8420 C.2   171  GLU171      0.2260
     54  O         -2.0260  -11.6260   91.0900 O.2   171  GLU171     -0.2867
     55  CB        -1.9020   -8.3430   90.9320 C.3   171  GLU171      0.0388
     56  CG        -2.5400   -7.8120   89.6580 C.3   171  GLU171      0.1160
     57  CD        -1.6010   -7.0310   88.7700 C.2   171  GLU171      0.3649
     58  OE1       -0.4760   -6.7160   89.2250 O.co2 171  GLU171     -0.2457
     59  OE2       -1.9840   -6.7240   87.6130 O.co2 171  GLU171     -0.2457
     60  N         -3.6190  -13.9830   84.0770 N.3   177  TYR177     -0.1241
     61  CA        -2.2240  -14.3620   84.3020 C.3   177  TYR177      0.1605
     62  C         -1.8710  -15.6570   83.5960 C.2   177  TYR177      0.2264
     63  O         -0.9130  -16.3440   83.9540 O.2   177  TYR177     -0.2867
     64  CB        -1.9560  -14.4560   85.8090 C.3   177  TYR177      0.0534
     65  CG        -1.5160  -13.1370   86.4010 C.ar  177  TYR177     -0.0201
     66  CD1       -1.7390  -11.9120   85.7830 C.ar  177  TYR177     -0.0009
     67  CD2       -0.8530  -13.1060   87.6150 C.ar  177  TYR177     -0.0009
     68  CE1       -1.3230  -10.7120   86.3440 C.ar  177  TYR177      0.0417
     69  CE2       -0.4330  -11.9220   88.1860 C.ar  177  TYR177      0.0417
     70  CZ        -0.6690  -10.7200   87.5520 C.ar  177  TYR177      0.1957
     71  OH        -0.2350   -9.5650   88.1590 O.3   177  TYR177     -0.2866
     72  N          0.6180  -14.2210   79.1610 N.3   181  TYR181     -0.1241
     73  CA         1.9030  -14.5730   79.7250 C.3   181  TYR181      0.1605
     74  C          2.4420  -15.9670   79.4310 C.2   181  TYR181      0.2264
     75  O          3.6300  -16.1830   79.7110 O.2   181  TYR181     -0.2867
     76  CB         1.7980  -14.4750   81.2620 C.3   181  TYR181      0.0534
     77  CG         1.6840  -13.0640   81.7900 C.ar  181  TYR181     -0.0201
     78  CD1        2.8140  -12.2620   81.9150 C.ar  181  TYR181     -0.0009
     79  CD2        0.4440  -12.5480   82.1610 C.ar  181  TYR181     -0.0009
     80  CE1        2.7230  -10.9700   82.3980 C.ar  181  TYR181      0.0417
     81  CE2        0.3460  -11.2630   82.6430 C.ar  181  TYR181      0.0417
     82  CZ         1.4780  -10.4870   82.7560 C.ar  181  TYR181      0.1957
     83  OH         1.3610   -9.2040   83.2370 O.3   181  TYR181     -0.2866
     84  N         -6.1020   -8.8490   86.5660 N.3   216  PHE216     -0.1241
     85  CA        -5.2190   -8.0330   85.7400 C.3   216  PHE216      0.1605
     86  C         -5.8830   -7.5690   84.4500 C.2   216  PHE216      0.2264
     87  O         -5.8810   -8.2280   83.4180 O.2   216  PHE216     -0.2867
     88  CB        -3.9340   -8.8030   85.4130 C.3   216  PHE216      0.0534
     89  CG        -3.0160   -8.0750   84.4480 C.ar  216  PHE216     -0.0203
     90  CD1       -2.6950   -6.7420   84.6290 C.ar  216  PHE216     -0.0042
     91  CD2       -2.4890   -8.7530   83.3590 C.ar  216  PHE216     -0.0042
     92  CE1       -1.8720   -6.0830   83.7350 C.ar  216  PHE216     -0.0003
     93  CE2       -1.6700   -8.0990   82.4630 C.ar  216  PHE216     -0.0003
     94  CZ        -1.3650   -6.7630   82.6420 C.ar  216  PHE216     -0.0000
     95  N         -0.4420    1.0840   78.5170 N.3   294  MET294     -0.1245
     96  CA         0.3240   -0.1470   78.6080 C.3   294  MET294      0.1570
     97  C          0.9290   -0.5910   77.2880 C.2   294  MET294      0.2261
     98  O          1.5870   -1.6360   77.1640 O.2   294  MET294     -0.2867
     99  CB        -0.5820   -1.2540   79.1710 C.3   294  MET294      0.0387
    100  CG        -1.1160   -0.9340   80.5560 C.3   294  MET294      0.0595
    101  SD         0.1040   -1.2580   81.8440 S.3   294  MET294     -0.1393
    102  CE         0.1180   -3.0570   81.8600 C.3   294  MET294      0.0692
@<TRIPOS>BOND
     1    98    97    2
     2    97    96    1
     3    95    96    1
     4    96    99    1
     5    72    73    1
     6    99   100    1
     7    74    75    2
     8    74    73    1
     9    73    76    1
    10   100   101    1
    11    76    77    1
    12    77    78   ar
    13    77    79   ar
    14   101   102    1
    15    78    80   ar
    16    79    81   ar
    17    80    82   ar
    18    93    94   ar
    19    93    91   ar
    20    94    92   ar
    21    81    82   ar
    22    82    83    1
    23    91    89   ar
    24    87    86    2
    25    62    63    2
    26    62    61    1
    27    92    90   ar
    28    60    61    1
    29    61    64    1
    30    89    90   ar
    31    89    88    1
    32    86    85    1
    33    10     9    1
    34    28    27    1
    35    11     9    1
    36     9     8    2
    37    88    85    1
    38    85    84    1
    39    66    68   ar
    40    66    65   ar
    41     8     7    1
    42    64    65    1
    43    25    26    1
    44    25    24    1
    45     7     6    1
    46    27    26    2
    47    27    29    1
    48    22    21    2
    49    23    24    1
    50    23    20    1
    51    21    20    1
    52    68    70   ar
    53    44    43    2
    54    65    67   ar
    55    20    19    1
    56    43    42    1
    57     6     5    1
    58    70    71    1
    59    70    69   ar
    60    59    57   ar
    61    67    69   ar
    62     5     2    1
    63    18    16    1
    64    42    41    1
    65    42    45    1
    66    57    58   ar
    67    57    56    1
    68    40    38    1
    69    41    32   am
    70    45    46    1
    71     2     1    1
    72     2     3    1
    73     4     3    2
    74    56    55    1
    75    17    16    1
    76    16    13    1
    77    37    38    2
    78    37    36    1
    79    47    46   ar
    80    47    49   ar
    81    38    39    1
    82    32    33    2
    83    32    31    1
    84    46    48   ar
    85    34    31    1
    86    34    35    1
    87    49    50   ar
    88    53    54    2
    89    53    52    1
    90    13    14    1
    91    13    12    1
    92    14    15    2
    93    55    52    1
    94    31    30    1
    95    36    35    1
    96    48    50   ar
    97    52    51    1
