@<TRIPOS>MOLECULE
tmp/1cbfA00.pdb
 161 156 0 0 0
SMALL
GASTEIGER

@<TRIPOS>ATOM
      1  N        -14.7540   39.6860   75.8580 N.3    18  PRO18      -0.2168
      2  CA       -13.3190   39.7460   75.8950 C.3    18  PRO18       0.1057
      3  C        -12.7320   41.0540   76.3870 C.3    18  PRO18       0.1993
      4  O        -11.5400   40.9940   76.7380 O.3    18  PRO18      -0.2189
      5  CB       -12.9640   39.5500   74.4240 C.3    18  PRO18       0.0215
      6  CG       -14.1110   40.1540   73.6580 C.3    18  PRO18       0.0203
      7  CD       -15.3240   39.6860   74.4530 C.3    18  PRO18       0.0888
      8  N         -9.4950   43.4680   83.9120 N.3    44  LEU44      -0.1245
      9  CA        -9.7260   42.2170   83.2010 C.3    44  LEU44       0.1561
     10  C        -11.1130   42.4330   82.5320 C.2    44  LEU44       0.2260
     11  O        -11.4370   42.0570   81.4120 O.2    44  LEU44      -0.2867
     12  CB        -9.6300   40.9020   83.9190 C.3    44  LEU44       0.0270
     13  CG        -8.6450   40.5500   85.0300 C.3    44  LEU44       0.0019
     14  CD1       -9.3800   40.0260   86.2580 C.3    44  LEU44       0.0001
     15  CD2       -7.5320   39.6110   84.5840 C.3    44  LEU44       0.0001
     16  N        -15.2230   38.0490   82.9840 N.3    89  THR89      -0.1203
     17  CA       -14.5800   38.1420   81.6870 C.3    89  THR89       0.1994
     18  C        -15.0970   37.0700   80.7040 C.2    89  THR89       0.2618
     19  O        -15.2640   35.9040   81.0930 O.2    89  THR89      -0.2717
     20  CB       -13.0330   37.9200   81.8160 C.3    89  THR89       0.1784
     21  OG1      -12.5400   38.9910   82.5960 O.3    89  THR89      -0.2211
     22  CG2      -12.3040   38.1390   80.4900 C.3    89  THR89       0.0376
     23  N        -15.2110   37.4160   79.4410 N.am   90  GLY90      -0.1942
     24  CA       -15.4730   36.3960   78.4100 C.3    90  GLY90       0.2014
     25  C        -16.7950   35.6850   78.7040 C.2    90  GLY90       0.2638
     26  O        -17.7840   36.4190   78.8670 O.2    90  GLY90      -0.2714
     27  N        -16.7730   34.3520   78.7350 N.am   91  ASP91      -0.1971
     28  CA       -18.0300   33.6620   79.1030 C.3    91  ASP91       0.1709
     29  C        -17.6920   32.9870   80.4180 C.2    91  ASP91       0.2293
     30  O        -16.5570   32.4980   80.5190 O.2    91  ASP91      -0.2864
     31  CB       -18.4750   32.6680   78.0390 C.3    91  ASP91       0.1436
     32  CG       -19.7550   31.9660   78.5010 C.2    91  ASP91       0.3671
     33  OD1      -19.6620   30.9720   79.2280 O.co2  91  ASP91      -0.2456
     34  OD2      -20.8130   32.4970   78.1650 O.co2  91  ASP91      -0.2456
     35  N        -15.9400   29.1630   81.0910 N.3    94  MET94      -0.1230
     36  CA       -14.5530   28.8030   80.9280 C.3    94  MET94       0.1702
     37  C        -13.7090   29.4740   82.0000 C.2    94  MET94       0.2592
     38  O        -13.2970   30.6580   81.9690 O.2    94  MET94      -0.2718
     39  CB       -14.0790   29.1980   79.5310 C.3    94  MET94       0.0401
     40  CG       -14.7530   28.4850   78.3370 C.3    94  MET94       0.0596
     41  SD       -14.6180   26.6820   78.4850 S.3    94  MET94      -0.1393
     42  CE       -12.8460   26.4880   78.5510 C.3    94  MET94       0.0692
     43  N        -13.4500   28.6850   83.0490 N.am   95  TYR95      -0.1962
     44  CA       -12.6220   29.1000   84.1710 C.3    95  TYR95       0.1771
     45  C        -13.1570   30.3930   84.7990 C.2    95  TYR95       0.2620
     46  O        -12.3430   31.1590   85.3220 O.2    95  TYR95      -0.2715
     47  CB       -11.1280   29.3030   83.8390 C.3    95  TYR95       0.0574
     48  CG       -10.5200   28.2390   82.9340 C.ar   95  TYR95      -0.0198
     49  CD1      -10.0720   27.0420   83.4500 C.ar   95  TYR95      -0.0009
     50  CD2      -10.3930   28.4960   81.5680 C.ar   95  TYR95      -0.0009
     51  CE1       -9.6050   26.0480   82.6310 C.ar   95  TYR95       0.0417
     52  CE2       -9.9080   27.5010   80.7280 C.ar   95  TYR95       0.0417
     53  CZ        -9.5290   26.2730   81.2710 C.ar   95  TYR95       0.1957
     54  OH        -9.0230   25.3110   80.4310 O.3    95  TYR95      -0.2866
     55  N        -14.4910   30.5590   84.8610 N.am   96  GLY96      -0.1954
     56  CA       -15.0930   31.7420   85.4810 C.3    96  GLY96       0.1869
     57  C        -15.1140   31.6050   87.0170 C.2    96  GLY96       0.2309
     58  O        -15.3720   32.6040   87.6590 O.2    96  GLY96      -0.2863
     59  N        -16.5920   34.4280   74.5070 N.3   119  THR119     -0.1203
     60  CA       -15.3650   33.9760   75.1540 C.3   119  THR119      0.1994
     61  C        -14.1530   34.4310   74.3710 C.2   119  THR119      0.2618
     62  O        -14.2820   34.7770   73.1800 O.2   119  THR119     -0.2717
     63  CB       -15.4050   32.5020   75.4630 C.3   119  THR119      0.1784
     64  OG1      -14.1600   31.8840   75.6080 O.3   119  THR119     -0.2211
     65  CG2      -16.1300   31.8370   74.2920 C.3   119  THR119      0.0376
     66  N        -13.0300   34.5500   75.0850 N.am  120  SER120     -0.1951
     67  CA       -11.8220   35.0720   74.4450 C.3   120  SER120      0.1924
     68  C        -11.2950   34.1690   73.3400 C.2   120  SER120      0.2314
     69  O        -10.5980   34.6860   72.4460 O.2   120  SER120     -0.2863
     70  CB       -10.7510   35.4100   75.4980 C.3   120  SER120      0.2116
     71  OG       -10.4460   34.1980   76.2570 O.3   120  SER120     -0.2180
     72  N         -5.5120   27.5310   73.9890 N.3   170  LEU170     -0.1231
     73  CA        -4.9500   27.6050   75.3340 C.3   170  LEU170      0.1693
     74  C         -5.3080   28.9050   76.0810 C.2   170  LEU170      0.2592
     75  O         -4.9470   30.0040   75.6720 O.2   170  LEU170     -0.2718
     76  CB        -3.4280   27.4130   75.3210 C.3   170  LEU170      0.0284
     77  CG        -2.9600   26.1300   74.6060 C.3   170  LEU170      0.0019
     78  CD1       -1.4890   26.0890   74.2430 C.3   170  LEU170      0.0001
     79  CD2       -3.3490   24.8970   75.3860 C.3   170  LEU170      0.0001
     80  N         -6.0560   28.7690   77.1700 N.am  171  PHE171     -0.1962
     81  CA        -6.2740   29.7910   78.1880 C.3   171  PHE171      0.1771
     82  C         -5.1470   29.7560   79.2280 C.2   171  PHE171      0.2619
     83  O         -4.4290   28.7580   79.4230 O.2   171  PHE171     -0.2715
     84  CB        -7.6130   29.5360   78.9160 C.3   171  PHE171      0.0574
     85  CG        -8.8630   29.6600   78.0710 C.ar  171  PHE171     -0.0200
     86  CD1       -9.1740   28.7070   77.0720 C.ar  171  PHE171     -0.0042
     87  CD2       -9.7320   30.7050   78.2360 C.ar  171  PHE171     -0.0042
     88  CE1      -10.3200   28.8260   76.3010 C.ar  171  PHE171     -0.0003
     89  CE2      -10.9050   30.8580   77.4780 C.ar  171  PHE171     -0.0003
     90  CZ       -11.1970   29.9000   76.5110 C.ar  171  PHE171     -0.0000
     91  N         -4.9420   30.8420   79.9620 N.am  172  LEU172     -0.1963
     92  CA        -4.0250   30.9320   81.0990 C.3   172  LEU172      0.1728
     93  C         -2.6370   30.3700   80.8160 C.2   172  LEU172      0.2616
     94  O         -2.0180   29.7640   81.6820 O.2   172  LEU172     -0.2715
     95  CB        -4.6740   29.9960   82.1380 C.3   172  LEU172      0.0311
     96  CG        -6.0240   30.5450   82.6550 C.3   172  LEU172      0.0022
     97  CD1       -6.8570   29.3810   83.1650 C.3   172  LEU172      0.0001
     98  CD2       -5.8870   31.6410   83.7250 C.3   172  LEU172      0.0001
     99  N         -2.0990   30.5240   79.6380 N.am  173  SER173     -0.1950
    100  CA        -0.8500   29.8910   79.2660 C.3   173  SER173      0.1924
    101  C          0.1620   30.7720   78.5750 C.2   173  SER173      0.2314
    102  O          1.1120   30.2010   78.0480 O.2   173  SER173     -0.2863
    103  CB        -1.2600   28.7650   78.2310 C.3   173  SER173      0.2116
    104  OG        -2.0900   27.8130   78.8680 O.3   173  SER173     -0.2180
    105  N         -3.2680   35.9810   70.4620 N.3   198  VAL198     -0.1245
    106  CA        -3.9980   37.2340   70.4900 C.3   198  VAL198      0.1561
    107  C         -3.9690   37.6760   71.9650 C.2   198  VAL198      0.2260
    108  O         -4.3800   36.9910   72.9030 O.2   198  VAL198     -0.2867
    109  CB        -5.4410   37.2870   69.9720 C.3   198  VAL198      0.0252
    110  CG1       -5.9670   38.7200   69.8960 C.3   198  VAL198      0.0019
    111  CG2       -5.5290   36.6570   68.5850 C.3   198  VAL198      0.0019
    112  N         -4.7820   40.3960   74.7240 N.3   200  LYS200     -0.1231
    113  CA        -5.8350   41.3950   74.9140 C.3   200  LYS200      0.1693
    114  C         -6.7570   41.5860   73.7310 C.2   200  LYS200      0.2591
    115  O         -7.1150   42.7370   73.2830 O.2   200  LYS200     -0.2718
    116  CB        -5.1540   42.7430   75.2430 C.3   200  LYS200      0.0285
    117  CG        -4.4850   42.7050   76.6290 C.3   200  LYS200      0.0035
    118  CD        -3.7730   43.9940   76.9740 C.3   200  LYS200      0.0206
    119  CE        -4.3370   44.7400   78.1640 C.3   200  LYS200      0.1093
    120  NZ        -5.7950   44.9300   77.9620 N.3   200  LYS200     -0.1314
    121  N         -7.3460   40.4620   73.2630 N.am  201  ALA201     -0.1980
    122  CA        -8.1960   40.6410   72.0480 C.3   201  ALA201      0.1597
    123  C         -9.2500   41.6740   72.3770 C.2   201  ALA201      0.2287
    124  O         -9.8810   41.7200   73.4440 O.2   201  ALA201     -0.2864
    125  CB        -8.8240   39.3020   71.7010 C.3   201  ALA201      0.0319
    126  N         -9.1130   44.7700   73.0010 N.3   203  TRP203     -0.1241
    127  CA        -8.8210   45.9810   73.7990 C.3   203  TRP203      0.1605
    128  C         -8.0910   46.9400   72.8740 C.2   203  TRP203      0.2264
    129  O         -7.6280   46.5280   71.8110 O.2   203  TRP203     -0.2867
    130  CB        -7.9390   45.6630   74.9770 C.3   203  TRP203      0.0550
    131  CG        -8.5670   44.9360   76.1070 C.ar  203  TRP203      0.0003
    132  CD1       -8.8480   43.5990   76.1340 C.ar  203  TRP203      0.0946
    133  CD2       -8.9470   45.4510   77.3780 C.ar  203  TRP203      0.0152
    134  NE1       -9.3780   43.2580   77.3400 N.ar  203  TRP203     -0.2442
    135  CE2       -9.4750   44.3740   78.1250 C.ar  203  TRP203      0.0810
    136  CE3       -8.9220   46.7340   77.9470 C.ar  203  TRP203      0.0012
    137  CZ2       -9.9730   44.5050   79.4190 C.ar  203  TRP203      0.0191
    138  CZ3       -9.4490   46.8850   79.2430 C.ar  203  TRP203      0.0001
    139  CH2       -9.9410   45.7750   79.9430 C.ar  203  TRP203      0.0015
    140  N         -2.8080   37.6860   79.6030 N.3   228  GLN228     -0.1231
    141  CA        -4.0320   37.9130   78.9050 C.3   228  GLN228      0.1698
    142  C         -4.0130   37.5410   77.4350 C.2   228  GLN228      0.2592
    143  O         -4.3440   38.3560   76.5490 O.2   228  GLN228     -0.2718
    144  CB        -4.2680   39.4330   79.0820 C.3   228  GLN228      0.0381
    145  CG        -5.4000   39.7420   80.0510 C.3   228  GLN228      0.0905
    146  CD        -5.6510   41.2280   80.2710 C.2   228  GLN228      0.2608
    147  OE1       -6.7180   41.7790   79.9000 O.2   228  GLN228     -0.2717
    148  NE2       -4.6850   41.8900   80.9330 N.am  228  GLN228     -0.0878
    149  N         -3.4230   36.3740   77.1210 N.am  229  ALA229     -0.1966
    150  CA        -3.2110   35.9790   75.7630 C.3   229  ALA229      0.1728
    151  C         -4.0230   34.6830   75.5510 C.2   229  ALA229      0.2616
    152  O         -4.1600   33.8250   76.4390 O.2   229  ALA229     -0.2715
    153  CB        -1.7340   35.7680   75.4260 C.3   229  ALA229      0.0334
    154  N         -4.4760   34.6150   74.3030 N.am  230  MET230     -0.1977
    155  CA        -5.2260   33.4240   73.8500 C.3   230  MET230      0.1605
    156  C         -4.3800   32.8150   72.7150 C.2   230  MET230      0.2287
    157  O         -4.0010   33.5310   71.7790 O.2   230  MET230     -0.2864
    158  CB        -6.5640   33.8410   73.2590 C.3   230  MET230      0.0413
    159  CG        -7.4310   32.7300   72.6300 C.3   230  MET230      0.0598
    160  SD        -7.4650   31.1520   73.4190 S.3   230  MET230     -0.1393
    161  CE        -8.2470   31.5510   75.0520 C.3   230  MET230      0.0692
@<TRIPOS>BOND
     1   111   109    1
     2   110   109    1
     3   109   106    1
     4   105   106    1
     5   106   107    1
     6   125   122    1
     7   157   156    2
     8   129   128    2
     9   107   108    2
    10   122   123    1
    11   122   121    1
    12   123   124    2
    13    69    68    2
    14   159   158    1
    15   159   160    1
    16   156   155    1
    17   128   127    1
    18   126   127    1
    19    62    61    2
    20   158   155    1
    21   121   114   am
    22   115   114    2
    23    68    67    1
    24   160   161    1
    25     6     5    1
    26     6     7    1
    27   114   113    1
    28   127   130    1
    29   155   154    1
    30    72    73    1
    31    78    77    1
    32    65    63    1
    33   154   151   am
    34    61    66   am
    35    61    60    1
    36     5     2    1
    37    67    66    1
    38    67    70    1
    39     7     1    1
    40    59    60    1
    41    77    76    1
    42    77    79    1
    43   112   113    1
    44   113   116    1
    45   130   131    1
    46    60    63    1
    47   116   117    1
    48    76    73    1
    49    73    74    1
    50   153   150    1
    51    63    64    1
    52    70    71    1
    53   151   150    1
    54   151   152    2
    55    75    74    2
    56   150   149    1
    57     1     2    1
    58     2     3    1
    59    74    80   am
    60   131   132   ar
    61   131   133   ar
    62   132   134   ar
    63    88    90   ar
    64    88    86   ar
    65     3     4    1
    66    90    89   ar
    67   143   142    2
    68   117   118    1
    69   118   119    1
    70    86    85   ar
    71   149   142   am
    72    80    81    1
    73   134   135   ar
    74   133   136   ar
    75   133   135   ar
    76   142   141    1
    77    89    87   ar
    78   136   138   ar
    79   120   119    1
    80    31    32    1
    81    31    28    1
    82   102   101    2
    83    85    87   ar
    84    85    84    1
    85   135   137   ar
    86    34    32   ar
    87    81    84    1
    88    81    82    1
    89   103   104    1
    90   103   100    1
    91    40    41    1
    92    40    39    1
    93    24    25    1
    94    24    23    1
    95    41    42    1
    96    32    33   ar
    97   101   100    1
    98    25    27   am
    99    25    26    2
   100    27    28    1
   101   141   144    1
   102   141   140    1
   103   144   145    1
   104    28    29    1
   105    82    83    2
   106    82    91   am
   107   138   139   ar
   108   100    99    1
   109   137   139   ar
   110    23    18   am
   111    39    36    1
   112    99    93   am
   113   147   146    2
   114    91    92    1
   115   145   146    1
   116   146   148   am
   117    29    30    2
   118    54    53    1
   119    22    20    1
   120    18    19    2
   121    18    17    1
   122    52    53   ar
   123    52    50   ar
   124    93    92    1
   125    93    94    2
   126    36    35    1
   127    36    37    1
   128    92    95    1
   129    53    51   ar
   130    11    10    2
   131    50    48   ar
   132    17    20    1
   133    17    16    1
   134    20    21    1
   135    38    37    2
   136    37    43   am
   137    95    96    1
   138    10     9    1
   139    51    49   ar
   140    96    97    1
   141    96    98    1
   142    48    49   ar
   143    48    47    1
   144    43    44    1
   145     9     8    1
   146     9    12    1
   147    47    44    1
   148    12    13    1
   149    44    45    1
   150    15    13    1
   151    45    55   am
   152    45    46    2
   153    55    56    1
   154    13    14    1
   155    56    57    1
   156    57    58    2
