@<TRIPOS>MOLECULE
tmp/1cbkB00.pdb
 109 105 0 0 0
SMALL
GASTEIGER

@<TRIPOS>ATOM
      1  N          1.1540   27.1330   59.4050 N.3     9  GLY9       -0.1225
      2  CA         1.8250   26.4200   60.4800 C.3     9  GLY9        0.1811
      3  C          2.1150   27.3600   61.6360 C.2     9  GLY9        0.2280
      4  O          2.2870   28.5730   61.4340 O.2     9  GLY9       -0.2866
      5  N          1.5890   18.0420   64.6400 N.3    43  SER43      -0.1202
      6  CA         2.6950   17.2630   64.0860 C.3    43  SER43       0.2020
      7  C          4.0280   17.5310   64.7900 C.2    43  SER43       0.2619
      8  O          4.2220   18.6010   65.3660 O.2    43  SER43      -0.2717
      9  CB         2.8240   17.6360   62.5960 C.3    43  SER43       0.2103
     10  OG         3.0230   19.0400   62.4530 O.3    43  SER43      -0.2182
     11  N          4.9520   16.5700   64.7060 N.am   44  LYS44      -0.1966
     12  CA         6.3150   16.7030   65.2790 C.3    44  LYS44       0.1713
     13  C          7.0550   17.7490   64.4700 C.2    44  LYS44       0.2458
     14  O          6.8720   17.8390   63.2490 O.2    44  LYS44      -0.2730
     15  CB         7.1280   15.4030   65.1470 C.3    44  LYS44       0.0311
     16  CG         6.6810   14.2810   66.0210 C.3    44  LYS44       0.0038
     17  CD         7.8210   13.2900   66.2690 C.3    44  LYS44       0.0206
     18  CE         7.4210   12.3140   67.3940 C.3    44  LYS44       0.1093
     19  NZ         8.4430   11.2670   67.6830 N.3    44  LYS44      -0.1314
     20  N          7.9100   18.5370   65.1190 N.am   45  PRO45      -0.2716
     21  CA         8.6630   19.5700   64.4160 C.3    45  PRO45       0.1536
     22  C          9.6280   19.0090   63.3810 C.2    45  PRO45       0.2598
     23  O         10.2160   17.9560   63.5850 O.2    45  PRO45      -0.2715
     24  CB         9.4650   20.2240   65.5420 C.3    45  PRO45       0.0310
     25  CG         8.6000   20.0500   66.7290 C.3    45  PRO45       0.0237
     26  CD         8.1400   18.6320   66.5720 C.3    45  PRO45       0.0939
     27  N          9.7320   19.7040   62.2520 N.am   46  LEU46      -0.1978
     28  CA        10.6860   19.3670   61.2090 C.3    46  LEU46       0.1596
     29  C         11.7870   20.3660   61.5400 C.2    46  LEU46       0.2287
     30  O         11.6200   21.5650   61.3570 O.2    46  LEU46      -0.2864
     31  CB        10.1330   19.6550   59.8070 C.3    46  LEU46       0.0297
     32  CG        11.1400   19.4050   58.6690 C.3    46  LEU46       0.0022
     33  CD1       11.5990   17.9300   58.7010 C.3    46  LEU46       0.0001
     34  CD2       10.5480   19.7670   57.2990 C.3    46  LEU46       0.0001
     35  N          3.9830   21.4100   66.1840 N.3    54  TYR54      -0.1241
     36  CA         3.2740   22.3770   65.3450 C.3    54  TYR54       0.1605
     37  C          1.7950   22.0300   65.1010 C.2    54  TYR54       0.2264
     38  O          1.3880   20.8730   65.2310 O.2    54  TYR54      -0.2867
     39  CB         3.9560   22.4510   63.9750 C.3    54  TYR54       0.0534
     40  CG         5.1880   23.3210   63.9180 C.ar   54  TYR54      -0.0201
     41  CD1        6.4000   22.8700   64.4320 C.ar   54  TYR54      -0.0009
     42  CD2        5.1410   24.6020   63.3520 C.ar   54  TYR54      -0.0009
     43  CE1        7.5450   23.6820   64.3910 C.ar   54  TYR54       0.0417
     44  CE2        6.2830   25.4230   63.3080 C.ar   54  TYR54       0.0417
     45  CZ         7.4710   24.9480   63.8350 C.ar   54  TYR54       0.1957
     46  OH         8.5830   25.7390   63.8500 O.3    54  TYR54      -0.2866
     47  N         -0.7890   22.4240   62.0480 N.3    56  ASN56      -0.1240
     48  CA        -0.7820   22.6770   60.6090 C.3    56  ASN56       0.1653
     49  C         -2.1230   22.5630   59.9310 C.2    56  ASN56       0.2266
     50  O         -2.9720   21.7820   60.3590 O.2    56  ASN56      -0.2867
     51  CB         0.1660   21.6770   59.9220 C.3    56  ASN56       0.1155
     52  CG         1.6060   22.0230   60.1360 C.2    56  ASN56       0.2627
     53  OD1        2.3020   21.3790   60.9310 O.2    56  ASN56      -0.2716
     54  ND2        2.0540   23.0920   59.4880 N.am   56  ASN56      -0.0877
     55  N         14.7290   27.1360   61.1770 N.3    89  TRP89      -0.1241
     56  CA        14.1340   25.8350   61.4350 C.3    89  TRP89       0.1605
     57  C         13.4820   25.7630   62.8150 C.2    89  TRP89       0.2264
     58  O         13.0180   24.6970   63.2020 O.2    89  TRP89      -0.2867
     59  CB        15.1860   24.7190   61.3320 C.3    89  TRP89       0.0550
     60  CG        15.8830   24.6110   60.0010 C.ar   89  TRP89       0.0003
     61  CD1       17.1990   24.8990   59.7370 C.ar   89  TRP89       0.0946
     62  CD2       15.3310   24.0960   58.7780 C.ar   89  TRP89       0.0152
     63  NE1       17.4980   24.5810   58.4370 N.ar   89  TRP89      -0.2442
     64  CE2       16.3750   24.0840   57.8200 C.ar   89  TRP89       0.0810
     65  CE3       14.0580   23.6390   58.4040 C.ar   89  TRP89       0.0012
     66  CZ2       16.1910   23.6230   56.5090 C.ar   89  TRP89       0.0191
     67  CZ3       13.8680   23.1800   57.0960 C.ar   89  TRP89       0.0001
     68  CH2       14.9400   23.1790   56.1640 C.ar   89  TRP89       0.0015
     69  N          8.0100   29.4610   65.7000 N.3    92  ARG92      -0.1245
     70  CA         7.4320   30.6440   65.0710 C.3    92  ARG92       0.1563
     71  C          5.9370   30.7130   65.4110 C.2    92  ARG92       0.2260
     72  O          5.2760   29.6700   65.5620 O.2    92  ARG92      -0.2867
     73  CB         7.5940   30.5310   63.5400 C.3    92  ARG92       0.0307
     74  CG         6.8560   29.3270   62.9340 C.3    92  ARG92       0.0489
     75  CD         7.5350   28.8260   61.6560 C.3    92  ARG92       0.2205
     76  NE         8.9230   28.4430   61.9040 N.pl3  92  ARG92      -0.0865
     77  CZ         9.9360   28.7580   61.1050 C.cat  92  ARG92       0.5346
     78  NH1        9.7170   29.4430   59.9940 N.pl3  92  ARG92       0.1354
     79  NH2       11.1660   28.3780   61.4100 N.pl3  92  ARG92       0.1354
     80  N          3.3820   30.9030   59.9880 N.3    95  ASP95      -0.1239
     81  CA         4.0360   30.8480   58.6830 C.3    95  ASP95       0.1674
     82  C          2.9340   30.5840   57.6580 C.2    95  ASP95       0.2266
     83  O          2.1780   29.6600   57.8480 O.2    95  ASP95      -0.2867
     84  CB         5.0560   29.7080   58.6190 C.3    95  ASP95       0.1410
     85  CG         6.5010   30.1990   58.5760 C.2    95  ASP95       0.3668
     86  OD1        6.7710   31.3960   58.7930 O.co2  95  ASP95      -0.2456
     87  OD2        7.3730   29.3630   58.3190 O.co2  95  ASP95      -0.2456
     88  N          6.5980   16.8390   52.9560 N.3   121  ARG121     -0.1245
     89  CA         6.1590   17.1080   54.3290 C.3   121  ARG121      0.1563
     90  C          4.7770   16.5510   54.6150 C.2   121  ARG121      0.2260
     91  O          3.7970   16.9660   54.0100 O.2   121  ARG121     -0.2867
     92  CB         6.1670   18.6100   54.5880 C.3   121  ARG121      0.0307
     93  CG         7.5490   19.2240   54.4740 C.3   121  ARG121      0.0489
     94  CD         7.5230   20.7330   54.5340 C.3   121  ARG121      0.2205
     95  NE         8.8850   21.2490   54.5930 N.pl3 121  ARG121     -0.0865
     96  CZ         9.2020   22.5080   54.8580 C.cat 121  ARG121      0.5346
     97  NH1        8.2540   23.4130   55.0800 N.pl3 121  ARG121      0.1354
     98  NH2       10.4710   22.8760   54.8990 N.pl3 121  ARG121      0.1354
     99  N          2.8810   17.1280   56.9550 N.3   123  PHE123     -0.1241
    100  CA         1.9910   18.1790   57.4330 C.3   123  PHE123      0.1605
    101  C          1.4460   19.1310   56.3730 C.2   123  PHE123      0.2264
    102  O          0.7200   20.0850   56.6940 O.2   123  PHE123     -0.2867
    103  CB         2.5830   18.9200   58.6430 C.3   123  PHE123      0.0534
    104  CG         3.9480   19.4720   58.4090 C.ar  123  PHE123     -0.0203
    105  CD1        4.1110   20.7110   57.7880 C.ar  123  PHE123     -0.0042
    106  CD2        5.0690   18.7460   58.7890 C.ar  123  PHE123     -0.0042
    107  CE1        5.3630   21.2180   57.5390 C.ar  123  PHE123     -0.0003
    108  CE2        6.3430   19.2370   58.5450 C.ar  123  PHE123     -0.0003
    109  CZ         6.4920   20.4790   57.9190 C.ar  123  PHE123     -0.0000
@<TRIPOS>BOND
     1    88    89    1
     2    91    90    2
     3    89    92    1
     4    89    90    1
     5    93    94    1
     6    93    92    1
     7    94    95    1
     8    95    96    2
     9    96    98    1
    10    96    97    1
    11    68    66   ar
    12    68    67   ar
    13   101   102    2
    14   101   100    1
    15    66    64   ar
    16    99   100    1
    17    67    65   ar
    18    34    32    1
    19   100   103    1
    20   107   105   ar
    21   107   109   ar
    22    82    83    2
    23    82    81    1
    24   105   104   ar
    25    64    63   ar
    26    64    62   ar
    27   109   108   ar
    28    87    85   ar
    29    65    62   ar
    30   104   103    1
    31   104   106   ar
    32    63    61   ar
    33   108   106   ar
    34    85    84    1
    35    85    86   ar
    36    84    81    1
    37    32    33    1
    38    32    31    1
    39    81    80    1
    40    62    60   ar
    41     1     2    1
    42    54    52   am
    43    61    60   ar
    44    31    28    1
    45    51    52    1
    46    51    48    1
    47    49    50    2
    48    49    48    1
    49    78    77    1
    50    60    59    1
    51    52    53    2
    52     2     3    1
    53    48    47    1
    54    77    79    1
    55    77    76    2
    56    55    56    1
    57    28    29    1
    58    28    27    1
    59    59    56    1
    60    30    29    2
    61     4     3    2
    62    56    57    1
    63    75    76    1
    64    75    74    1
    65    27    22   am
    66    10     9    1
    67     9     6    1
    68    57    58    2
    69    74    73    1
    70    14    13    2
    71    44    42   ar
    72    44    45   ar
    73    42    40   ar
    74    22    23    2
    75    22    21    1
    76    73    70    1
    77    45    46    1
    78    45    43   ar
    79    40    39    1
    80    40    41   ar
    81    39    36    1
    82     6     5    1
    83     6     7    1
    84    43    41   ar
    85    21    20    1
    86    21    24    1
    87    13    20   am
    88    13    12    1
    89    11     7   am
    90    11    12    1
    91     7     8    2
    92    70    71    1
    93    70    69    1
    94    37    38    2
    95    37    36    1
    96    20    26    1
    97    15    12    1
    98    15    16    1
    99    36    35    1
   100    71    72    2
   101    24    25    1
   102    16    17    1
   103    17    18    1
   104    26    25    1
   105    18    19    1
