@<TRIPOS>MOLECULE
tmp/1cbqA00.pdb
 179 164 0 0 0
SMALL
GASTEIGER

@<TRIPOS>ATOM
      1  N         58.8740   36.6720   29.9720 N.3    15  PHE15      -0.1241
      2  CA        59.9380   37.0920   30.8620 C.3    15  PHE15       0.1605
      3  C         59.7550   38.5310   31.3430 C.2    15  PHE15       0.2264
      4  O         59.9430   38.8160   32.5240 O.2    15  PHE15      -0.2867
      5  CB        61.3080   36.9190   30.1920 C.3    15  PHE15       0.0534
      6  CG        62.4720   37.3180   31.0730 C.ar   15  PHE15      -0.0203
      7  CD1       62.6690   36.7030   32.3120 C.ar   15  PHE15      -0.0042
      8  CD2       63.3440   38.3500   30.6840 C.ar   15  PHE15      -0.0042
      9  CE1       63.7130   37.1090   33.1530 C.ar   15  PHE15      -0.0003
     10  CE2       64.3820   38.7560   31.5170 C.ar   15  PHE15      -0.0003
     11  CZ        64.5700   38.1440   32.7520 C.ar   15  PHE15      -0.0000
     12  N         58.7240   40.1470   35.1700 N.3    19  LEU19      -0.1245
     13  CA        59.5070   41.2040   35.8010 C.3    19  LEU19       0.1561
     14  C         58.6030   42.3610   36.1990 C.2    19  LEU19       0.2260
     15  O         58.8240   42.9910   37.2270 O.2    19  LEU19      -0.2867
     16  CB        60.5640   41.7010   34.8130 C.3    19  LEU19       0.0270
     17  CG        61.9870   41.1590   34.8680 C.3    19  LEU19       0.0019
     18  CD1       62.0700   39.8610   35.6270 C.3    19  LEU19       0.0001
     19  CD2       62.5200   41.0460   33.4630 C.3    19  LEU19       0.0001
     20  N         59.8430   45.2920   38.8070 N.3    24  VAL24      -0.1245
     21  CA        61.1590   45.7400   38.3660 C.3    24  VAL24       0.1561
     22  C         60.8890   46.9730   37.5240 C.2    24  VAL24       0.2260
     23  O         59.9320   46.9780   36.7360 O.2    24  VAL24      -0.2867
     24  CB        61.8830   44.6510   37.5550 C.3    24  VAL24       0.0252
     25  CG1       63.2040   45.1500   37.0540 C.3    24  VAL24       0.0019
     26  CG2       62.1410   43.4690   38.4380 C.3    24  VAL24       0.0019
     27  N         65.5790   48.8480   34.4610 N.3    28  LEU28      -0.1245
     28  CA        66.1400   47.5620   34.8270 C.3    28  LEU28       0.1561
     29  C         65.5590   46.4320   33.9810 C.2    28  LEU28       0.2260
     30  O         66.2630   45.4810   33.6480 O.2    28  LEU28      -0.2867
     31  CB        65.9530   47.2760   36.3220 C.3    28  LEU28       0.0270
     32  CG        66.6470   48.1740   37.3520 C.3    28  LEU28       0.0019
     33  CD1       66.4980   47.5080   38.6920 C.3    28  LEU28       0.0001
     34  CD2       68.1220   48.3670   37.0240 C.3    28  LEU28       0.0001
     35  N         67.3030   46.3640   30.6030 N.3    31  ILE31      -0.1231
     36  CA        68.6300   45.8030   30.6920 C.3    31  ILE31       0.1692
     37  C         68.5130   44.2830   30.8670 C.2    31  ILE31       0.2591
     38  O         69.2610   43.5260   30.2580 O.2    31  ILE31      -0.2718
     39  CB        69.4010   46.4330   31.8860 C.3    31  ILE31       0.0266
     40  CG1       69.5850   47.9280   31.6570 C.3    31  ILE31       0.0019
     41  CG2       70.7640   45.8010   32.0430 C.3    31  ILE31       0.0020
     42  CD1       70.3660   48.5950   32.7670 C.3    31  ILE31       0.0001
     43  N         67.5600   43.8410   31.6850 N.am   32  ALA32      -0.1980
     44  CA        67.3610   42.4230   31.9640 C.3    32  ALA32       0.1597
     45  C         66.9780   41.6710   30.7190 C.2    32  ALA32       0.2287
     46  O         67.4760   40.5860   30.4650 O.2    32  ALA32      -0.2864
     47  CB        66.2890   42.2380   33.0140 C.3    32  ALA32       0.0319
     48  N         69.9770   41.3980   28.3320 N.3    35  ALA35      -0.1231
     49  CA        70.9860   40.4810   28.8450 C.3    35  ALA35       0.1694
     50  C         70.5290   39.0280   28.8410 C.2    35  ALA35       0.2591
     51  O         71.3250   38.1420   28.5720 O.2    35  ALA35      -0.2718
     52  CB        71.4140   40.9070   30.2530 C.3    35  ALA35       0.0304
     53  N         69.2540   38.7760   29.1420 N.am   36  ALA36      -0.1980
     54  CA        68.7040   37.4220   29.1850 C.3    36  ALA36       0.1597
     55  C         68.5490   36.8140   27.7790 C.2    36  ALA36       0.2287
     56  O         68.2190   35.6230   27.6250 O.2    36  ALA36      -0.2864
     57  CB        67.3580   37.4390   29.8860 C.3    36  ALA36       0.0319
     58  N         71.9920   33.9880   27.3840 N.3    39  PRO39      -0.2116
     59  CA        72.7040   33.5970   28.5900 C.3    39  PRO39       0.1372
     60  C         73.5190   32.3430   28.3230 C.2    39  PRO39       0.2244
     61  O         73.5050   31.8000   27.2160 O.2    39  PRO39      -0.2868
     62  CB        71.5640   33.3410   29.5840 C.3    39  PRO39       0.0268
     63  CG        70.4630   32.7990   28.7340 C.3    39  PRO39       0.0207
     64  CD        70.5780   33.5580   27.4100 C.3    39  PRO39       0.0892
     65  N         74.1030   28.8590   30.4000 N.3    41  VAL41      -0.1245
     66  CA        73.7350   28.1040   31.5910 C.3    41  VAL41       0.1561
     67  C         74.6450   26.8940   31.7160 C.2    41  VAL41       0.2260
     68  O         74.7630   26.1020   30.7910 O.2    41  VAL41      -0.2867
     69  CB        72.2630   27.6190   31.5300 C.3    41  VAL41       0.0252
     70  CG1       71.8950   26.8720   32.7830 C.3    41  VAL41       0.0019
     71  CG2       71.3310   28.8090   31.3510 C.3    41  VAL41       0.0019
     72  N         74.2940   30.7040   35.8780 N.3    54  THR54      -0.1218
     73  CA        73.6050   31.3670   34.7910 C.3    54  THR54       0.1862
     74  C         74.3120   32.6930   34.5340 C.2    54  THR54       0.2287
     75  O         74.1920   33.6350   35.3150 O.2    54  THR54      -0.2866
     76  CB        72.1240   31.6230   35.1410 C.3    54  THR54       0.1770
     77  OG1       71.4750   30.3790   35.4160 O.3    54  THR54      -0.2211
     78  CG2       71.4060   32.3030   33.9800 C.3    54  THR54       0.0375
     79  N         75.2660   36.0630   32.1210 N.3    56  THR56      -0.1218
     80  CA        74.8230   37.0270   31.1270 C.3    56  THR56       0.1862
     81  C         75.9760   38.0470   31.2110 C.2    56  THR56       0.2287
     82  O         76.8510   37.9330   32.0820 O.2    56  THR56      -0.2866
     83  CB        73.4250   37.6490   31.4120 C.3    56  THR56       0.1770
     84  OG1       73.5020   38.5540   32.5090 O.3    56  THR56      -0.2211
     85  CG2       72.3890   36.5650   31.7080 C.3    56  THR56       0.0375
     86  N         75.8990   41.1080   31.9920 N.3    58  VAL58      -0.1231
     87  CA        75.6790   42.1190   33.0270 C.3    58  VAL58       0.1692
     88  C         75.5340   41.5770   34.4280 C.2    58  VAL58       0.2591
     89  O         75.9530   42.2160   35.3830 O.2    58  VAL58      -0.2718
     90  CB        74.4090   42.9390   32.7330 C.3    58  VAL58       0.0266
     91  CG1       74.1710   43.9530   33.8120 C.3    58  VAL58       0.0020
     92  CG2       74.5320   43.6080   31.4080 C.3    58  VAL58       0.0020
     93  N         74.9140   40.4120   34.5630 N.am   59  ARG59      -0.1980
     94  CA        74.6870   39.8400   35.8800 C.3    59  ARG59       0.1597
     95  C         74.6820   38.3380   35.8100 C.2    59  ARG59       0.2287
     96  O         73.9810   37.7460   34.9830 O.2    59  ARG59      -0.2864
     97  CB        73.3610   40.3480   36.4230 C.3    59  ARG59       0.0334
     98  CG        72.9360   39.7200   37.6970 C.3    59  ARG59       0.0492
     99  CD        71.8030   40.4930   38.2550 C.3    59  ARG59       0.2205
    100  NE        71.0740   39.7240   39.2460 N.pl3  59  ARG59      -0.0865
    101  CZ        71.3130   39.7670   40.5530 C.cat  59  ARG59       0.5346
    102  NH1       72.2770   40.5490   41.0360 N.pl3  59  ARG59       0.1354
    103  NH2       70.5640   39.0450   41.3750 N.pl3  59  ARG59       0.1354
    104  N         74.4950   34.6420   38.2130 N.3    61  THR61      -0.1218
    105  CA        74.0660   34.0070   39.4580 C.3    61  THR61       0.1862
    106  C         74.5280   32.5440   39.5500 C.2    61  THR61       0.2287
    107  O         74.5590   31.8380   38.5460 O.2    61  THR61      -0.2866
    108  CB        72.5420   34.0130   39.5800 C.3    61  THR61       0.1770
    109  OG1       71.9870   33.1720   38.5710 O.3    61  THR61      -0.2211
    110  CG2       71.9900   35.4020   39.4040 C.3    61  THR61       0.0375
    111  N         64.3280   36.0960   41.0780 N.3    76  VAL76      -0.1231
    112  CA        64.8480   36.5930   39.7940 C.3    76  VAL76       0.1692
    113  C         65.1850   38.0720   39.8770 C.2    76  VAL76       0.2592
    114  O         66.1110   38.5470   39.2180 O.2    76  VAL76      -0.2718
    115  CB        63.8470   36.4730   38.6230 C.3    76  VAL76       0.0266
    116  CG1       64.5930   36.0880   37.3450 C.3    76  VAL76       0.0020
    117  CG2       62.7170   35.5330   38.9480 C.3    76  VAL76       0.0020
    118  N         64.3830   38.8000   40.6460 N.am   77  ASP77      -0.1960
    119  CA        64.5870   40.2250   40.7940 C.3    77  ASP77       0.1840
    120  C         65.6410   40.6340   41.8230 C.2    77  ASP77       0.2622
    121  O         65.8250   41.8120   42.0920 O.2    77  ASP77      -0.2715
    122  CB        63.2540   40.9520   40.9950 C.3    77  ASP77       0.1450
    123  CG        62.5170   40.5050   42.2340 C.2    77  ASP77       0.3671
    124  OD1       62.4630   39.2920   42.5000 O.co2  77  ASP77      -0.2456
    125  OD2       61.9820   41.3810   42.9410 O.co2  77  ASP77      -0.2456
    126  N         66.3450   39.6650   42.3870 N.am   78  GLY78      -0.1954
    127  CA        67.4040   40.0030   43.3100 C.3    78  GLY78       0.1869
    128  C         67.0750   39.9980   44.7760 C.2    78  GLY78       0.2309
    129  O         67.8950   40.4590   45.5570 O.2    78  GLY78      -0.2863
    130  N         62.5540   23.1220   36.7400 N.3   111  ARG111     -0.1245
    131  CA        63.4770   22.7710   35.6740 C.3   111  ARG111      0.1563
    132  C         63.1270   21.3380   35.2950 C.2   111  ARG111      0.2260
    133  O         62.9260   20.4900   36.1550 O.2   111  ARG111     -0.2867
    134  CB        64.9230   22.9070   36.1200 C.3   111  ARG111      0.0307
    135  CG        65.4180   24.3420   36.0220 C.3   111  ARG111      0.0489
    136  CD        66.8820   24.4410   36.3530 C.3   111  ARG111      0.2205
    137  NE        67.3580   25.7700   36.0100 N.pl3 111  ARG111     -0.0865
    138  CZ        67.4710   26.7790   36.8630 C.cat 111  ARG111      0.5346
    139  NH1       67.1620   26.6360   38.1400 N.pl3 111  ARG111      0.1354
    140  NH2       67.8350   27.9590   36.4170 N.pl3 111  ARG111      0.1354
    141  N         62.7580   25.6400   31.7300 N.3   121  LEU121     -0.1245
    142  CA        62.7870   26.4130   32.9550 C.3   121  LEU121      0.1561
    143  C         61.5010   27.2110   33.0070 C.2   121  LEU121      0.2260
    144  O         61.1410   27.8670   32.0490 O.2   121  LEU121     -0.2867
    145  CB        63.9800   27.3950   32.9380 C.3   121  LEU121      0.0270
    146  CG        63.9770   28.5530   33.9610 C.3   121  LEU121      0.0019
    147  CD1       64.1520   28.0070   35.3610 C.3   121  LEU121      0.0001
    148  CD2       65.0520   29.5970   33.6560 C.3   121  LEU121      0.0001
    149  N         59.3700   29.9850   35.4530 N.3   123  MET123     -0.1245
    150  CA        59.5330   30.8500   36.6070 C.3   123  MET123      0.1570
    151  C         58.1760   31.4690   36.8120 C.2   123  MET123      0.2261
    152  O         57.5710   31.9490   35.8560 O.2   123  MET123     -0.2867
    153  CB        60.5760   31.9410   36.3490 C.3   123  MET123      0.0387
    154  CG        61.9850   31.4410   36.2050 C.3   123  MET123      0.0595
    155  SD        63.1930   32.7360   35.9490 S.3   123  MET123     -0.1393
    156  CE        62.8520   33.1850   34.2820 C.3   123  MET123      0.0692
    157  N         61.1290   29.1740   29.4880 N.3   132  ARG132     -0.1245
    158  CA        62.3450   29.3240   28.7110 C.3   132  ARG132      0.1563
    159  C         62.8530   27.9280   28.3490 C.2   132  ARG132      0.2260
    160  O         62.9960   27.0710   29.2110 O.2   132  ARG132     -0.2867
    161  CB        63.3610   30.1350   29.5220 C.3   132  ARG132      0.0307
    162  CG        62.9180   31.5660   29.7220 C.3   132  ARG132      0.0489
    163  CD        63.7500   32.3090   30.7280 C.3   132  ARG132      0.2205
    164  NE        65.1230   32.5250   30.2950 N.pl3 132  ARG132     -0.0865
    165  CZ        65.5120   33.4820   29.4630 C.cat 132  ARG132      0.5346
    166  NH1       64.6330   34.3180   28.9390 N.pl3 132  ARG132      0.1354
    167  NH2       66.8030   33.6510   29.2240 N.pl3 132  ARG132      0.1354
    168  N         65.8110   25.4870   26.5060 N.3   134  TYR134     -0.1241
    169  CA        67.2260   25.4070   26.1510 C.3   134  TYR134      0.1605
    170  C         67.5860   24.0690   25.5140 C.2   134  TYR134      0.2264
    171  O         66.8670   23.0860   25.6580 O.2   134  TYR134     -0.2867
    172  CB        68.0950   25.5290   27.4100 C.3   134  TYR134      0.0534
    173  CG        67.7900   26.6900   28.3120 C.ar  134  TYR134     -0.0201
    174  CD1       66.7250   26.6340   29.2050 C.ar  134  TYR134     -0.0009
    175  CD2       68.5780   27.8440   28.2970 C.ar  134  TYR134     -0.0009
    176  CE1       66.4380   27.6960   30.0650 C.ar  134  TYR134      0.0417
    177  CE2       68.3000   28.9170   29.1510 C.ar  134  TYR134      0.0417
    178  CZ        67.2220   28.8280   30.0270 C.ar  134  TYR134      0.1957
    179  OH        66.8940   29.8940   30.8330 O.3   134  TYR134     -0.2866
@<TRIPOS>BOND
     1   170   171    2
     2   170   169    1
     3   169   168    1
     4   169   172    1
     5    61    60    2
     6    58    64    1
     7    58    59    1
     8    64    63    1
     9   172   173    1
    10    56    55    2
    11    55    54    1
    12   175   173   ar
    13   175   177   ar
    14   173   174   ar
    15    60    59    1
    16    48    49    1
    17   159   158    1
    18   159   160    2
    19    51    50    2
    20    59    62    1
    21   158   157    1
    22   158   161    1
    23    63    62    1
    24    50    49    1
    25    50    53   am
    26    49    52    1
    27   166   165    1
    28    53    54    1
    29   177   178   ar
    30    54    57    1
    31   174   176   ar
    32   167   165    1
    33   165   164    2
    34   161   162    1
    35   162   163    1
    36     1     2    1
    37   178   176   ar
    38   178   179    1
    39     5     2    1
    40     5     6    1
    41    38    37    2
    42   164   163    1
    43    65    66    1
    44    46    45    2
    45    35    36    1
    46     8     6   ar
    47     8    10   ar
    48    36    37    1
    49    36    39    1
    50    45    44    1
    51    68    67    2
    52     2     3    1
    53    37    43   am
    54     6     7   ar
    55    80    81    1
    56    80    83    1
    57    80    79    1
    58    81    82    2
    59     3     4    2
    60    71    69    1
    61    92    90    1
    62    83    85    1
    63    83    84    1
    64    10    11   ar
    65    69    66    1
    66    69    70    1
    67    66    67    1
    68    40    39    1
    69    40    42    1
    70    43    44    1
    71   141   142    1
    72    39    41    1
    73    44    47    1
    74    86    87    1
    75   144   143    2
    76     7     9   ar
    77    90    87    1
    78    90    91    1
    79    11     9   ar
    80   145   142    1
    81   145   146    1
    82   142   143    1
    83    87    88    1
    84    19    17    1
    85    30    29    2
    86   148   146    1
    87   146   147    1
    88    78    76    1
    89    29    28    1
    90   156   155    1
    91    88    93   am
    92    88    89    2
    93    27    28    1
    94    74    73    1
    95    74    75    2
    96    93    94    1
    97    73    76    1
    98    73    72    1
    99    16    17    1
   100    16    13    1
   101    28    31    1
   102    17    18    1
   103    96    95    2
   104    76    77    1
   105    12    13    1
   106   132   131    1
   107   132   133    2
   108   149   150    1
   109   131   134    1
   110   131   130    1
   111    13    14    1
   112    95    94    1
   113   152   151    2
   114    94    97    1
   115   155   154    1
   116   137   136    1
   117   137   138    2
   118   135   134    1
   119   135   136    1
   120    14    15    2
   121   154   153    1
   122    31    32    1
   123   153   150    1
   124   140   138    1
   125    97    98    1
   126   150   151    1
   127    23    22    2
   128   138   139    1
   129    34    32    1
   130    25    24    1
   131   116   115    1
   132    32    33    1
   133    22    21    1
   134    24    21    1
   135    24    26    1
   136    98    99    1
   137   104   105    1
   138    99   100    1
   139    21    20    1
   140   107   106    2
   141   109   108    1
   142   115   117    1
   143   115   112    1
   144   114   113    2
   145   100   101    2
   146   110   108    1
   147   105   106    1
   148   105   108    1
   149   112   113    1
   150   112   111    1
   151   113   118   am
   152   101   102    1
   153   101   103    1
   154   118   119    1
   155   119   122    1
   156   119   120    1
   157   122   123    1
   158   120   121    2
   159   120   126   am
   160   123   124   ar
   161   123   125   ar
   162   126   127    1
   163   127   128    1
   164   128   129    2
