@<TRIPOS>MOLECULE
tmp/1cbrA00.pdb
 165 152 0 0 0
SMALL
GASTEIGER

@<TRIPOS>ATOM
      1  N          9.4610   15.8640  -11.3840 N.3    15  PHE15      -0.1241
      2  CA         9.1520   14.5050  -10.9450 C.3    15  PHE15       0.1605
      3  C          9.8150   13.4850  -11.8570 C.2    15  PHE15       0.2264
      4  O         10.3630   12.4870  -11.3880 O.2    15  PHE15      -0.2867
      5  CB         7.6500   14.2550  -10.8920 C.3    15  PHE15       0.0534
      6  CG         7.2720   12.9670  -10.1970 C.ar   15  PHE15      -0.0203
      7  CD1        7.5990   12.7540   -8.8670 C.ar   15  PHE15      -0.0042
      8  CD2        6.5850   11.9730  -10.8650 C.ar   15  PHE15      -0.0042
      9  CE1        7.2440   11.5810   -8.2300 C.ar   15  PHE15      -0.0003
     10  CE2        6.2350   10.8060  -10.2240 C.ar   15  PHE15      -0.0003
     11  CZ         6.5660   10.6140   -8.9090 C.ar   15  PHE15      -0.0000
     12  N         12.4860   10.6520  -10.8400 N.3    19  LEU19      -0.1245
     13  CA        12.3680    9.2350  -11.1940 C.3    19  LEU19       0.1561
     14  C         13.5220    8.7870  -12.0930 C.2    19  LEU19       0.2260
     15  O         14.0510    7.6890  -11.9370 O.2    19  LEU19      -0.2867
     16  CB        11.0360    8.9640  -11.8990 C.3    19  LEU19       0.0270
     17  CG         9.7670    9.2740  -11.1070 C.3    19  LEU19       0.0019
     18  CD1        8.5430    8.8940  -11.9280 C.3    19  LEU19       0.0001
     19  CD2        9.7710    8.5220   -9.7800 C.3    19  LEU19       0.0001
     20  N         14.4700    4.5490  -12.7140 N.3    24  VAL24      -0.1245
     21  CA        13.3170    4.0140  -13.4460 C.3    24  VAL24       0.1561
     22  C         13.5240    4.1980  -14.9590 C.2    24  VAL24       0.2260
     23  O         14.1270    5.1860  -15.3930 O.2    24  VAL24      -0.2867
     24  CB        12.0240    4.7460  -13.0410 C.3    24  VAL24       0.0252
     25  CG1       10.8220    4.0620  -13.6420 C.3    24  VAL24       0.0019
     26  CG2       11.8920    4.8080  -11.5350 C.3    24  VAL24       0.0019
     27  N          8.4270    2.9790  -17.8190 N.3    28  LEU28      -0.1245
     28  CA         7.7570    3.1340  -16.5200 C.3    28  LEU28       0.1561
     29  C          7.5040    4.5720  -16.0790 C.2    28  LEU28       0.2260
     30  O          6.4600    4.8670  -15.4980 O.2    28  LEU28      -0.2867
     31  CB         8.5630    2.4250  -15.4450 C.3    28  LEU28       0.0270
     32  CG         8.6450    0.9150  -15.6080 C.3    28  LEU28       0.0019
     33  CD1        9.8890    0.4000  -14.9270 C.3    28  LEU28       0.0001
     34  CD2        7.3850    0.2730  -15.0420 C.3    28  LEU28       0.0001
     35  N          4.4190    6.0610  -17.2100 N.3    31  VAL31      -0.1231
     36  CA         3.2440    5.5620  -16.4910 C.3    31  VAL31       0.1692
     37  C          3.1330    6.3090  -15.1890 C.2    31  VAL31       0.2591
     38  O          2.0710    6.8390  -14.8470 O.2    31  VAL31      -0.2718
     39  CB         3.3680    4.0670  -16.0960 C.3    31  VAL31       0.0266
     40  CG1        1.9880    3.4670  -15.8920 C.3    31  VAL31       0.0020
     41  CG2        4.1580    3.2910  -17.1170 C.3    31  VAL31       0.0020
     42  N          4.2530    6.3110  -14.4650 N.am   32  ALA32      -0.1980
     43  CA         4.3680    6.9520  -13.1620 C.3    32  ALA32       0.1597
     44  C          3.8880    8.3960  -13.2210 C.2    32  ALA32       0.2287
     45  O          2.8530    8.7370  -12.6630 O.2    32  ALA32      -0.2864
     46  CB         5.8150    6.8860  -12.6770 C.3    32  ALA32       0.0319
     47  N          0.8200    9.9580  -11.5760 N.3    36  ALA36      -0.1245
     48  CA         1.3190   10.7950  -10.5070 C.3    36  ALA36       0.1562
     49  C          0.9890   12.2530  -10.7580 C.2    36  ALA36       0.2260
     50  O          1.5770   13.1360  -10.1310 O.2    36  ALA36      -0.2867
     51  CB         2.8150   10.6170  -10.4040 C.3    36  ALA36       0.0290
     52  N         -2.8420   12.9520   -8.0510 N.3    39  PRO39      -0.2116
     53  CA        -2.8720   12.2260   -6.7870 C.3    39  PRO39       0.1372
     54  C         -3.8820   12.8520   -5.8460 C.2    39  PRO39       0.2244
     55  O         -4.1770   14.0450   -5.9360 O.2    39  PRO39      -0.2868
     56  CB        -1.4640   12.4290   -6.2620 C.3    39  PRO39       0.0268
     57  CG        -1.1590   13.8240   -6.6900 C.3    39  PRO39       0.0207
     58  CD        -1.6880   13.8680   -8.1020 C.3    39  PRO39       0.0892
     59  N         -4.7300   13.1040   -1.7880 N.3    41  VAL41      -0.1245
     60  CA        -4.0240   12.9360   -0.5330 C.3    41  VAL41       0.1561
     61  C         -4.9180   13.2500    0.6550 C.2    41  VAL41       0.2260
     62  O         -5.6180   14.2610    0.6640 O.2    41  VAL41      -0.2867
     63  CB        -2.7700   13.8470   -0.4870 C.3    41  VAL41       0.0252
     64  CG1       -2.2780   14.0080    0.9250 C.3    41  VAL41       0.0019
     65  CG2       -1.6530   13.2620   -1.3410 C.3    41  VAL41       0.0019
     66  N         -1.5610    8.5500    0.2510 N.3    54  THR54      -0.1218
     67  CA        -1.4100    9.1540   -1.0590 C.3    54  THR54       0.1862
     68  C         -1.8630    8.1770   -2.1350 C.2    54  THR54       0.2287
     69  O         -1.1600    7.2190   -2.4650 O.2    54  THR54      -0.2866
     70  CB         0.0320    9.5920   -1.2920 C.3    54  THR54       0.1770
     71  OG1        0.2920   10.7640   -0.5150 O.3    54  THR54      -0.2211
     72  CG2        0.2740    9.8960   -2.7550 C.3    54  THR54       0.0375
     73  N         -3.1410    7.1980   -6.0660 N.3    56  THR56      -0.1218
     74  CA        -3.0800    7.4780   -7.4970 C.3    56  THR56       0.1862
     75  C         -3.5220    6.1850   -8.1780 C.2    56  THR56       0.2287
     76  O         -3.5460    5.1230   -7.5510 O.2    56  THR56      -0.2866
     77  CB        -1.6710    7.8020   -7.9920 C.3    56  THR56       0.1770
     78  OG1       -0.9350    6.5870   -8.1550 O.3    56  THR56      -0.2211
     79  CG2       -0.9370    8.7060   -7.0160 C.3    56  THR56       0.0375
     80  N         -2.0820    3.9380  -10.4280 N.3    58  VAL58      -0.1231
     81  CA        -1.2240    2.7530  -10.4260 C.3    58  VAL58       0.1692
     82  C         -0.5350    2.4310   -9.1100 C.2    58  VAL58       0.2591
     83  O          0.2070    1.4550   -9.0370 O.2    58  VAL58      -0.2718
     84  CB        -0.1440    2.8180  -11.5000 C.3    58  VAL58       0.0266
     85  CG1       -0.7900    2.8730  -12.8560 C.3    58  VAL58       0.0020
     86  CG2        0.7740    4.0080  -11.2620 C.3    58  VAL58       0.0020
     87  N         -0.7590    3.2500   -8.0830 N.am   59  ARG59      -0.1980
     88  CA        -0.1420    3.0300   -6.7780 C.3    59  ARG59       0.1597
     89  C         -0.6790    3.9320   -5.6870 C.2    59  ARG59       0.2287
     90  O         -0.6750    5.1600   -5.8030 O.2    59  ARG59      -0.2864
     91  CB         1.3780    3.1760   -6.8540 C.3    59  ARG59       0.0334
     92  CG         1.9940    3.8240   -5.6350 C.3    59  ARG59       0.0492
     93  CD         3.4940    3.7850   -5.6790 C.3    59  ARG59       0.2205
     94  NE         4.0050    2.5430   -5.1150 N.pl3  59  ARG59      -0.0865
     95  CZ         5.1430    2.4550   -4.4340 C.cat  59  ARG59       0.5346
     96  NH1        5.8860    3.5420   -4.2400 N.pl3  59  ARG59       0.1354
     97  NH2        5.5300    1.2860   -3.9320 N.pl3  59  ARG59       0.1354
     98  N         10.1250    6.6370   -3.0940 N.3    76  VAL76      -0.1231
     99  CA         9.2020    6.9340   -4.2140 C.3    76  VAL76       0.1692
    100  C          9.1140    5.8880   -5.3090 C.2    76  VAL76       0.2592
    101  O          8.0250    5.5780   -5.7950 O.2    76  VAL76      -0.2718
    102  CB         9.5240    8.2790   -4.8730 C.3    76  VAL76       0.0266
    103  CG1        8.6280    8.5160   -6.0700 C.3    76  VAL76       0.0020
    104  CG2        9.3210    9.3760   -3.8890 C.3    76  VAL76       0.0020
    105  N         10.2680    5.3490   -5.6850 N.am   77  ASP77      -0.1974
    106  CA        10.3190    4.3300   -6.7100 C.3    77  ASP77       0.1709
    107  C         10.1330    2.9370   -6.1460 C.2    77  ASP77       0.2293
    108  O         10.6980    1.9810   -6.6680 O.2    77  ASP77      -0.2864
    109  CB        11.6280    4.4150   -7.4750 C.3    77  ASP77       0.1436
    110  CG        12.8100    4.1100   -6.6170 C.2    77  ASP77       0.3671
    111  OD1       12.8750    4.6420   -5.4960 O.co2  77  ASP77      -0.2456
    112  OD2       13.6750    3.3350   -7.0710 O.co2  77  ASP77      -0.2456
    113  N          7.8080   17.5620    4.1130 N.3   111  ARG111     -0.1245
    114  CA         6.4900   18.1940    3.9770 C.3   111  ARG111      0.1563
    115  C          6.4520   19.4590    4.8480 C.2   111  ARG111      0.2260
    116  O          6.8730   19.4410    5.9980 O.2   111  ARG111     -0.2867
    117  CB         5.3570   17.2310    4.3580 C.3   111  ARG111      0.0307
    118  CG         5.1170   16.1150    3.3450 C.3   111  ARG111      0.0489
    119  CD         3.9420   15.2440    3.7550 C.3   111  ARG111      0.2205
    120  NE         3.5730   14.2050    2.7840 N.pl3 111  ARG111     -0.0865
    121  CZ         4.2960   13.1170    2.5100 C.cat 111  ARG111      0.5346
    122  NH1        5.4650   12.8790    3.0930 N.pl3 111  ARG111      0.1354
    123  NH2        3.7840   12.1870    1.7270 N.pl3 111  ARG111      0.1354
    124  N          5.4320   19.8580   -0.7710 N.3   120  LEU120     -0.1245
    125  CA         6.1190   18.5630   -0.6210 C.3   120  LEU120      0.1561
    126  C          7.4010   18.5330   -1.4500 C.2   120  LEU120      0.2260
    127  O          7.4040   18.9360   -2.6120 O.2   120  LEU120     -0.2867
    128  CB         5.2030   17.4040   -1.0250 C.3   120  LEU120      0.0270
    129  CG         5.7850   16.0000   -1.2470 C.3   120  LEU120      0.0019
    130  CD1        6.4760   15.4290   -0.0130 C.3   120  LEU120      0.0001
    131  CD2        4.6460   15.0930   -1.6890 C.3   120  LEU120      0.0001
    132  N         10.9370   16.1560   -2.6000 N.3   122  PHE122     -0.1241
    133  CA        11.5530   14.8430   -2.7000 C.3   122  PHE122      0.1605
    134  C         12.9590   15.0550   -3.2010 C.2   122  PHE122      0.2264
    135  O         13.1650   15.6880   -4.2330 O.2   122  PHE122     -0.2867
    136  CB        10.8400   13.9790   -3.7260 C.3   122  PHE122      0.0534
    137  CG         9.5400   13.4410   -3.2700 C.ar  122  PHE122     -0.0203
    138  CD1        9.4760   12.5820   -2.1970 C.ar  122  PHE122     -0.0042
    139  CD2        8.3790   13.7520   -3.9470 C.ar  122  PHE122     -0.0042
    140  CE1        8.2610   12.0300   -1.8040 C.ar  122  PHE122     -0.0003
    141  CE2        7.1610   13.2100   -3.5660 C.ar  122  PHE122     -0.0003
    142  CZ         7.1010   12.3480   -2.4940 C.ar  122  PHE122     -0.0000
    143  N          6.4140   19.5040   -5.2390 N.3   131  ARG131     -0.1245
    144  CA         5.0360   19.3250   -5.6280 C.3   131  ARG131      0.1563
    145  C          4.2760   20.1340   -4.5910 C.2   131  ARG131      0.2260
    146  O          4.5420   20.0100   -3.3960 O.2   131  ARG131     -0.2867
    147  CB         4.7060   17.8380   -5.5930 C.3   131  ARG131      0.0307
    148  CG         5.5810   17.0750   -6.5920 C.3   131  ARG131      0.0489
    149  CD         5.5440   15.5690   -6.4350 C.3   131  ARG131      0.2205
    150  NE         4.2120   15.0070   -6.6160 N.pl3 131  ARG131     -0.0865
    151  CZ         3.5680   14.9390   -7.7760 C.cat 131  ARG131      0.5346
    152  NH1        4.1230   15.4120   -8.8800 N.pl3 131  ARG131      0.1354
    153  NH2        2.3890   14.3310   -7.8420 N.pl3 131  ARG131      0.1354
    154  N          0.7040   21.2150   -2.8770 N.3   133  TYR133     -0.1241
    155  CA        -0.6760   20.7850   -2.6970 C.3   133  TYR133      0.1605
    156  C         -1.5350   21.9440   -2.2360 C.2   133  TYR133      0.2264
    157  O         -1.0140   22.9570   -1.7960 O.2   133  TYR133     -0.2867
    158  CB        -0.7370   19.6440   -1.6870 C.3   133  TYR133      0.0534
    159  CG        -0.2430   18.3450   -2.2360 C.ar  133  TYR133     -0.0201
    160  CD1        1.1060   18.0730   -2.3410 C.ar  133  TYR133     -0.0009
    161  CD2       -1.1340   17.4220   -2.7150 C.ar  133  TYR133     -0.0009
    162  CE1        1.5490   16.9090   -2.9260 C.ar  133  TYR133      0.0417
    163  CE2       -0.7100   16.2610   -3.3060 C.ar  133  TYR133      0.0417
    164  CZ         0.6250   16.0070   -3.4110 C.ar  133  TYR133      0.1957
    165  OH         1.0070   14.8400   -4.0280 O.3   133  TYR133     -0.2866
@<TRIPOS>BOND
     1    27    28    1
     2    35    36    1
     3    41    39    1
     4    28    29    1
     5    28    31    1
     6    36    39    1
     7    36    37    1
     8    39    40    1
     9    29    30    2
    10    32    31    1
    11    32    34    1
    12    32    33    1
    13    23    22    2
    14    37    38    2
    15    37    42   am
    16    22    21    1
    17    42    43    1
    18    25    24    1
    19    21    24    1
    20    21    20    1
    21    44    43    1
    22    44    45    2
    23    43    46    1
    24    24    26    1
    25    85    84    1
    26    14    15    2
    27    14    13    1
    28    18    17    1
    29    16    13    1
    30    16    17    1
    31     3     4    2
    32     3     2    1
    33    47    48    1
    34    84    86    1
    35    84    81    1
    36     1     2    1
    37    13    12    1
    38    17    19    1
    39     2     5    1
    40     5     6    1
    41     8    10   ar
    42     8     6   ar
    43    49    48    1
    44    49    50    2
    45    48    51    1
    46    80    81    1
    47    81    82    1
    48    10    11   ar
    49     6     7   ar
    50    82    83    2
    51    82    87   am
    52    11     9   ar
    53   152   151    1
    54     7     9   ar
    55    75    76    2
    56    75    74    1
    57    78    77    1
    58    58    52    1
    59    58    57    1
    60    87    88    1
    61    52    53    1
    62    77    74    1
    63    77    79    1
    64   153   151    1
    65   151   150    2
    66    74    73    1
    67   109   106    1
    68   109   110    1
    69   112   110   ar
    70    91    88    1
    71    91    92    1
    72    53    56    1
    73    53    54    1
    74    88    89    1
    75   106   107    1
    76   106   105    1
    77    57    56    1
    78   108   107    2
    79   110   111   ar
    80   150   149    1
    81   148   149    1
    82   148   147    1
    83   103   102    1
    84    55    54    2
    85    90    89    2
    86   101   100    2
    87   105   100   am
    88    93    92    1
    89    93    94    1
    90   144   147    1
    91   144   143    1
    92   144   145    1
    93   100    99    1
    94    94    95    2
    95   102    99    1
    96   102   104    1
    97   145   146    2
    98    95    96    1
    99    95    97    1
   100   135   134    2
   101    99    98    1
   102   165   164    1
   103   139   141   ar
   104   139   137   ar
   105   136   137    1
   106   136   133    1
   107   141   142   ar
   108   164   163   ar
   109   164   162   ar
   110   163   161   ar
   111   137   138   ar
   112   134   133    1
   113   162   160   ar
   114   154   155    1
   115    72    70    1
   116   161   159   ar
   117   133   132    1
   118   155   156    1
   119   155   158    1
   120   127   126    2
   121   142   140   ar
   122    69    68    2
   123   160   159   ar
   124   159   158    1
   125   156   157    2
   126   138   140   ar
   127    68    67    1
   128    59    60    1
   129   131   129    1
   130   126   125    1
   131    65    63    1
   132    70    67    1
   133    70    71    1
   134   129   128    1
   135   129   130    1
   136    67    66    1
   137   128   125    1
   138   124   125    1
   139    60    63    1
   140    60    61    1
   141    63    64    1
   142    61    62    2
   143   123   121    1
   144   121   120    2
   145   121   122    1
   146   120   119    1
   147   118   119    1
   148   118   117    1
   149   114   113    1
   150   114   117    1
   151   114   115    1
   152   115   116    2
