@<TRIPOS>MOLECULE
tmp/1cbvB00.pdb
 85 84 0 0 0
SMALL
GASTEIGER

@<TRIPOS>ATOM
      1  N        -14.4890   -1.6000  -16.2470 N.3    31  HIS31      -0.1226
      2  CA       -14.6510   -3.0020  -16.7080 C.3    31  HIS31       0.1752
      3  C        -15.3750   -3.0530  -18.0380 C.2    31  HIS31       0.2597
      4  O        -16.0460   -2.0810  -18.4280 O.2    31  HIS31      -0.2718
      5  CB       -15.4110   -3.7180  -15.5960 C.3    31  HIS31       0.0759
      6  CG       -15.4500   -5.2190  -15.7250 C.ar   31  HIS31       0.0818
      7  ND1      -16.2610   -5.9700  -14.9150 N.ar   31  HIS31      -0.2268
      8  CD2      -14.7950   -6.0370  -16.5850 C.ar   31  HIS31       0.1154
      9  CE1      -16.0450   -7.2120  -15.2470 C.ar   31  HIS31       0.1986
     10  NE2      -15.1960   -7.3040  -16.2840 N.ar   31  HIS31      -0.2212
     11  N        -15.2690   -4.1440  -18.7350 N.am   32  SER32      -0.1938
     12  CA       -15.8650   -4.3640  -20.0560 C.3    32  SER32       0.2055
     13  C        -17.3660   -4.6710  -19.9410 C.2    32  SER32       0.2643
     14  O        -18.0380   -4.8400  -20.9780 O.2    32  SER32      -0.2714
     15  CB       -15.1450   -5.5130  -20.7840 C.3    32  SER32       0.2130
     16  OG       -15.2600   -6.6700  -19.9560 O.3    32  SER32      -0.2179
     17  N        -17.8200   -4.7540  -18.7170 N.am   33  ASN33      -0.1971
     18  CA       -19.1400   -5.0930  -18.2550 C.3    33  ASN33       0.1688
     19  C        -19.0840   -5.2800  -16.6850 C.2    33  ASN33       0.2292
     20  O        -18.6440   -6.3260  -16.1900 O.2    33  ASN33      -0.2864
     21  CB       -19.7090   -6.3650  -18.8930 C.3    33  ASN33       0.1181
     22  CG       -20.5590   -6.3070  -20.1220 C.2    33  ASN33       0.2629
     23  OD1      -20.5240   -7.2330  -21.0000 O.2    33  ASN33      -0.2716
     24  ND2      -21.3710   -5.2510  -20.3180 N.am   33  ASN33      -0.0877
     25  N        -14.7850   -0.8940  -10.4770 N.3    37  TYR37      -0.1241
     26  CA       -14.6830   -1.5850   -9.1770 C.3    37  TYR37       0.1605
     27  C        -13.4570   -0.9890   -8.4670 C.2    37  TYR37       0.2264
     28  O        -12.3440   -1.4690   -8.5310 O.2    37  TYR37      -0.2867
     29  CB       -14.6390   -3.0630   -9.3140 C.3    37  TYR37       0.0534
     30  CG       -15.6380   -3.7450  -10.2050 C.ar   37  TYR37      -0.0201
     31  CD1      -16.9440   -4.0320   -9.7850 C.ar   37  TYR37      -0.0009
     32  CD2      -15.2340   -4.1910  -11.4670 C.ar   37  TYR37      -0.0009
     33  CE1      -17.8480   -4.6900  -10.6200 C.ar   37  TYR37       0.0417
     34  CE2      -16.1240   -4.8650  -12.2950 C.ar   37  TYR37       0.0417
     35  CZ       -17.4260   -5.0970  -11.8800 C.ar   37  TYR37       0.1957
     36  OH       -18.2310   -5.7680  -12.7450 O.3    37  TYR37      -0.2866
     37  N        -12.9220    0.6410   -4.7200 N.3    39  HIS39      -0.1241
     38  CA       -13.5380    0.5360   -3.3810 C.3    39  HIS39       0.1621
     39  C        -12.5980    1.1700   -2.3620 C.2    39  HIS39       0.2264
     40  O        -11.3820    1.0760   -2.5190 O.2    39  HIS39      -0.2867
     41  CB       -13.8140   -0.9030   -3.0220 C.3    39  HIS39       0.0745
     42  CG       -14.3310   -1.8440   -4.0570 C.ar   39  HIS39       0.0817
     43  ND1      -14.3750   -3.2200   -3.7920 N.ar   39  HIS39      -0.2268
     44  CD2      -14.8380   -1.6470   -5.3150 C.ar   39  HIS39       0.1154
     45  CE1      -14.8520   -3.7730   -4.8530 C.ar   39  HIS39       0.1986
     46  NE2      -15.1520   -2.8710   -5.8250 N.ar   39  HIS39      -0.2212
     47  N        -17.6700    0.8380   -5.7800 N.3    55  LYS55      -0.1245
     48  CA       -17.8480    1.2920   -7.1540 C.3    55  LYS55       0.1561
     49  C        -17.9710    2.8110   -7.2070 C.2    55  LYS55       0.2260
     50  O        -18.9290    3.4240   -7.7050 O.2    55  LYS55      -0.2867
     51  CB       -19.0520    0.5770   -7.7610 C.3    55  LYS55       0.0271
     52  CG       -18.7100   -0.8740   -8.1790 C.3    55  LYS55       0.0035
     53  CD       -19.8220   -1.5590   -8.8880 C.3    55  LYS55       0.0206
     54  CE       -21.1410   -1.5720   -8.1090 C.3    55  LYS55       0.1093
     55  NZ       -22.2090   -2.0590   -9.0600 N.3    55  LYS55      -0.1314
     56  N        -10.8060   -4.3160   -7.9330 N.3    96  SER96      -0.1202
     57  CA       -11.1100   -5.7410   -8.2080 C.3    96  SER96       0.2020
     58  C        -11.7250   -5.8460   -9.6240 C.2    96  SER96       0.2619
     59  O        -12.7360   -6.5040   -9.7880 O.2    96  SER96      -0.2717
     60  CB       -11.9870   -6.3670   -7.1670 C.3    96  SER96       0.2103
     61  OG       -13.1770   -5.6200   -6.9740 O.3    96  SER96      -0.2182
     62  N        -11.1080   -5.1500  -10.5620 N.am   97  THR97      -0.1938
     63  CA       -11.5250   -5.1920  -11.9640 C.3    97  THR97       0.2028
     64  C        -10.6350   -6.2030  -12.6930 C.2    97  THR97       0.2642
     65  O        -11.0870   -7.0230  -13.5360 O.2    97  THR97      -0.2714
     66  CB       -11.6010   -3.7900  -12.5680 C.3    97  THR97       0.1808
     67  OG1      -12.4980   -3.1040  -11.6960 O.3    97  THR97      -0.2208
     68  CG2      -12.2080   -3.7240  -13.9480 C.3    97  THR97       0.0379
     69  N         -9.3750   -6.1670  -12.3150 N.am   98  HIS98      -0.1959
     70  CA        -8.3650   -7.1060  -12.8160 C.3    98  HIS98       0.1787
     71  C         -7.9300   -8.0400  -11.6900 C.2    98  HIS98       0.2620
     72  O         -7.8620   -7.5650  -10.5210 O.2    98  HIS98      -0.2715
     73  CB        -7.1610   -6.3060  -13.2790 C.3    98  HIS98       0.0785
     74  CG        -7.4550   -5.2810  -14.3290 C.ar   98  HIS98       0.0821
     75  ND1       -7.6710   -5.6380  -15.6480 N.ar   98  HIS98      -0.2267
     76  CD2       -7.5340   -3.9000  -14.1810 C.ar   98  HIS98       0.1154
     77  CE1       -7.8890   -4.4820  -16.2480 C.ar   98  HIS98       0.1986
     78  NE2       -7.8100   -3.4040  -15.4160 N.ar   98  HIS98      -0.2212
     79  N         -7.7040   -9.3040  -12.0310 N.am   99  VAL99      -0.1977
     80  CA        -7.0170  -10.1730  -11.0120 C.3    99  VAL99       0.1596
     81  C         -5.5180   -9.8250  -11.1740 C.2    99  VAL99       0.2287
     82  O         -5.0240  -10.0880  -12.2950 O.2    99  VAL99      -0.2864
     83  CB        -7.3150  -11.6430  -11.2370 C.3    99  VAL99       0.0276
     84  CG1       -8.5240  -12.1990  -10.4980 C.3    99  VAL99       0.0022
     85  CG2       -7.3300  -11.9380  -12.7260 C.3    99  VAL99       0.0022
@<TRIPOS>BOND
     1    23    22    2
     2    14    13    2
     3    15    12    1
     4    15    16    1
     5    24    22   am
     6    22    21    1
     7    12    13    1
     8    12    11    1
     9    13    17   am
    10    21    18    1
    11    11     3   am
    12    17    18    1
    13     4     3    2
    14    18    19    1
    15     3     2    1
    16     2     1    1
    17     2     5    1
    18    19    20    2
    19     8    10   ar
    20     8     6   ar
    21    10     9   ar
    22    77    75   ar
    23    77    78   ar
    24     6     5    1
    25     6     7   ar
    26    75    74   ar
    27    78    76   ar
    28     9     7   ar
    29    74    76   ar
    30    74    73    1
    31    68    66    1
    32    65    64    2
    33    73    70    1
    34    70    69    1
    35    70    71    1
    36    36    35    1
    37    85    83    1
    38    64    69   am
    39    64    63    1
    40    66    63    1
    41    66    67    1
    42    34    35   ar
    43    34    32   ar
    44    82    81    2
    45    79    71   am
    46    79    80    1
    47    63    62    1
    48    35    33   ar
    49    71    72    2
    50    32    30   ar
    51    83    80    1
    52    83    84    1
    53    81    80    1
    54    33    31   ar
    55    62    58   am
    56    25    26    1
    57    30    31   ar
    58    30    29    1
    59    59    58    2
    60    58    57    1
    61    29    26    1
    62    26    27    1
    63    55    54    1
    64    53    52    1
    65    53    54    1
    66    28    27    2
    67    57    56    1
    68    57    60    1
    69    52    51    1
    70    51    48    1
    71    50    49    2
    72    49    48    1
    73    60    61    1
    74    48    47    1
    75    46    44   ar
    76    46    45   ar
    77    44    42   ar
    78    45    43   ar
    79    37    38    1
    80    42    43   ar
    81    42    41    1
    82    38    41    1
    83    38    39    1
    84    40    39    2
