@<TRIPOS>MOLECULE
tmp/1cbxA00.pdb
 148 139 0 0 0
SMALL
GASTEIGER

@<TRIPOS>ATOM
      1  N         -1.9300   21.7550   -5.3060 N.3    69  HIS69      -0.1241
      2  CA        -1.3350   22.3910   -4.1230 C.3    69  HIS69       0.1621
      3  C         -1.9620   21.7890   -2.8530 C.2    69  HIS69       0.2264
      4  O         -3.1780   21.8760   -2.6270 O.2    69  HIS69      -0.2867
      5  CB        -1.5620   23.9110   -4.1930 C.3    69  HIS69       0.0745
      6  CG        -0.6860   24.5820   -5.2660 C.ar   69  HIS69       0.0817
      7  ND1       -1.1620   25.5920   -6.1050 N.ar   69  HIS69      -0.2268
      8  CD2        0.6120   24.3830   -5.6260 C.ar   69  HIS69       0.1154
      9  CE1       -0.1840   25.9480   -6.9240 C.ar   69  HIS69       0.1986
     10  NE2        0.8790   25.2340   -6.6520 N.ar   69  HIS69      -0.2212
     11  N         -4.5610   23.0000   -0.0320 N.3    72  GLU72      -0.1245
     12  CA        -5.8700   23.4850   -0.4380 C.3    72  GLU72       0.1567
     13  C         -6.9990   22.4430   -0.3160 C.2    72  GLU72       0.2260
     14  O         -7.5870   22.0460   -1.3810 O.2    72  GLU72      -0.2867
     15  CB        -5.7270   23.9690   -1.9210 C.3    72  GLU72       0.0388
     16  CG        -4.6650   25.1410   -2.0410 C.3    72  GLU72       0.1160
     17  CD        -4.1770   25.6190   -3.4280 C.2    72  GLU72       0.3649
     18  OE1       -4.9250   25.2120   -4.3580 O.co2  72  GLU72      -0.2457
     19  OE2       -3.1610   26.3050   -3.5700 O.co2  72  GLU72      -0.2457
     20  N          2.3410   22.8940    0.4690 N.3   127  ARG127     -0.1245
     21  CA         1.9330   23.3380   -0.8710 C.3   127  ARG127      0.1563
     22  C          2.6080   22.4630   -1.9380 C.2   127  ARG127      0.2260
     23  O          2.0290   22.1860   -3.0010 O.2   127  ARG127     -0.2867
     24  CB         2.3350   24.7950   -1.0560 C.3   127  ARG127      0.0307
     25  CG         2.2300   25.2980   -2.4920 C.3   127  ARG127      0.0489
     26  CD         2.6790   26.7550   -2.6140 C.3   127  ARG127      0.2205
     27  NE         2.7660   27.2200   -4.0010 N.pl3 127  ARG127     -0.0865
     28  CZ         1.7440   27.7690   -4.6710 C.cat 127  ARG127      0.5346
     29  NH1        0.5440   27.9270   -4.0990 N.pl3 127  ARG127      0.1354
     30  NH2        1.8250   28.2070   -5.9340 N.pl3 127  ARG127      0.1354
     31  N          2.6080   23.7880   -9.9880 N.3   144  ASN144     -0.1225
     32  CA         1.8170   24.6420  -10.8150 C.3   144  ASN144      0.1785
     33  C          2.7080   25.7920  -11.3010 C.2   144  ASN144      0.2597
     34  O          2.3080   26.7980  -11.8800 O.2   144  ASN144     -0.2718
     35  CB         0.6060   25.2960  -10.1620 C.3   144  ASN144      0.1169
     36  CG        -0.2760   25.7080  -11.2880 C.2   144  ASN144      0.2627
     37  OD1       -0.3100   25.2440  -12.3660 O.2   144  ASN144     -0.2716
     38  ND2       -1.0360   26.7360  -11.0590 N.am  144  ASN144     -0.0877
     39  N          3.9740   25.5000  -11.1850 N.am  145  ARG145     -0.1979
     40  CA         5.0650   26.2870  -11.7650 C.3   145  ARG145      0.1597
     41  C          5.9790   25.3820  -12.6600 C.2   145  ARG145      0.2287
     42  O          6.9790   25.8020  -13.3420 O.2   145  ARG145     -0.2864
     43  CB         5.9470   26.9680  -10.7430 C.3   145  ARG145      0.0334
     44  CG         5.3250   28.1270  -10.0330 C.3   145  ARG145      0.0492
     45  CD         4.7260   29.2640  -10.8680 C.3   145  ARG145      0.2205
     46  NE         4.0700   30.1830   -9.9450 N.pl3 145  ARG145     -0.0865
     47  CZ         2.8400   29.8840   -9.4310 C.cat 145  ARG145      0.5346
     48  NH1        2.0910   28.7410   -9.7120 N.pl3 145  ARG145      0.1354
     49  NH2        2.4380   30.8160   -8.6040 N.pl3 145  ARG145      0.1354
     50  N         -8.1960   25.2440   -7.5530 N.3   196  HIS196     -0.1226
     51  CA        -7.3280   25.6650   -6.4320 C.3   196  HIS196      0.1752
     52  C         -8.1730   26.2830   -5.3440 C.2   196  HIS196      0.2596
     53  O         -9.3310   26.6100   -5.5680 O.2   196  HIS196     -0.2718
     54  CB        -6.3000   26.6980   -6.9260 C.3   196  HIS196      0.0759
     55  CG        -5.1650   26.0640   -7.7120 C.ar  196  HIS196      0.0818
     56  ND1       -3.8640   25.9380   -7.1600 N.ar  196  HIS196     -0.2268
     57  CD2       -5.1250   25.5450   -8.9520 C.ar  196  HIS196      0.1154
     58  CE1       -3.1260   25.3610   -8.0850 C.ar  196  HIS196      0.1986
     59  NE2       -3.8570   25.1170   -9.1580 N.ar  196  HIS196     -0.2212
     60  N         -7.5550   26.7160   -4.2980 N.am  197  SER197     -0.1952
     61  CA        -8.1570   27.7390   -3.4810 C.3   197  SER197      0.1924
     62  C         -6.9870   28.5980   -2.9720 C.2   197  SER197      0.2314
     63  O         -5.8350   28.1140   -3.0390 O.2   197  SER197     -0.2863
     64  CB        -8.9600   27.0640   -2.3150 C.3   197  SER197      0.2116
     65  OG        -8.0640   26.6160   -1.3360 O.3   197  SER197     -0.2180
     66  N        -10.1740   31.9970  -13.7510 N.3   203  LEU203     -0.1245
     67  CA        -8.9720   32.4860  -14.4380 C.3   203  LEU203      0.1561
     68  C         -8.7890   31.7400  -15.7520 C.2   203  LEU203      0.2260
     69  O         -9.2310   30.6780  -15.8720 O.2   203  LEU203     -0.2867
     70  CB        -7.7370   32.2520  -13.4830 C.3   203  LEU203      0.0270
     71  CG        -7.2200   33.4160  -12.6470 C.3   203  LEU203      0.0019
     72  CD1       -8.1610   34.5780  -12.3780 C.3   203  LEU203      0.0001
     73  CD2       -6.6510   32.7540  -11.4510 C.3   203  LEU203      0.0001
     74  N         -4.8350   35.1730  -16.0470 N.3   243  ILE243     -0.1245
     75  CA        -4.0650   35.0650  -14.8270 C.3   243  ILE243      0.1561
     76  C         -3.3310   36.3400  -14.4280 C.2   243  ILE243      0.2260
     77  O         -3.2370   36.7570  -13.2600 O.2   243  ILE243     -0.2867
     78  CB        -3.1280   33.8310  -14.9120 C.3   243  ILE243      0.0252
     79  CG1       -3.8540   32.5460  -15.3370 C.3   243  ILE243      0.0019
     80  CG2       -2.1530   33.6150  -13.8080 C.3   243  ILE243      0.0019
     81  CD1       -3.0430   31.4480  -16.0180 C.3   243  ILE243      0.0001
     82  N         -4.7420   37.8600  -11.0830 N.3   247  ILE247     -0.1231
     83  CA        -3.9470   37.4410   -9.9300 C.3   247  ILE247      0.1692
     84  C         -2.5160   37.8710   -9.9040 C.2   247  ILE247      0.2592
     85  O         -2.0890   38.7670   -9.2020 O.2   247  ILE247     -0.2718
     86  CB        -4.1590   36.0930   -9.2880 C.3   247  ILE247      0.0266
     87  CG1       -3.3470   36.0090   -8.0320 C.3   247  ILE247      0.0019
     88  CG2       -3.7960   34.9280  -10.1280 C.3   247  ILE247      0.0020
     89  CD1       -3.5990   34.6100   -7.3940 C.3   247  ILE247      0.0001
     90  N         -1.7850   37.4140  -10.8730 N.am  248  TYR248     -0.1976
     91  CA        -0.3630   37.7550  -10.9790 C.3   248  TYR248      0.1639
     92  C          0.2430   36.9560  -12.1440 C.2   248  TYR248      0.2290
     93  O         -0.3740   35.9600  -12.5700 O.2   248  TYR248     -0.2864
     94  CB         0.4180   37.5870   -9.5850 C.3   248  TYR248      0.0560
     95  CG         0.2360   36.4040   -8.6280 C.ar  248  TYR248     -0.0198
     96  CD1        0.4550   35.1710   -9.2250 C.ar  248  TYR248     -0.0009
     97  CD2       -0.0800   36.4130   -7.2500 C.ar  248  TYR248     -0.0009
     98  CE1        0.2940   33.9980   -8.4810 C.ar  248  TYR248      0.0417
     99  CE2       -0.2600   35.2500   -6.4910 C.ar  248  TYR248      0.0417
    100  CZ        -0.0380   34.0210   -7.1340 C.ar  248  TYR248      0.1957
    101  OH        -0.1830   32.7630   -6.5960 O.3   248  TYR248     -0.2866
    102  N          2.5400   34.3260  -13.4540 N.3   250  ALA250     -0.1301
    103  CA         2.9730   33.1040  -12.8450 C.3   250  ALA250      0.1247
    104  C          3.3680   32.3730  -14.1100 C.3   250  ALA250      0.2009
    105  O          2.6220   32.2540  -15.1550 O.3   250  ALA250     -0.2188
    106  CB         1.8470   32.3470  -12.2090 C.3   250  ALA250      0.0233
    107  N          2.4900   27.3490  -15.4440 N.3   253  GLY253     -0.1210
    108  CA         1.2200   27.0420  -14.9030 C.3   253  GLY253      0.1956
    109  C          0.5440   26.1600  -15.8720 C.2   253  GLY253      0.2613
    110  O          0.8180   26.1880  -17.0500 O.2   253  GLY253     -0.2717
    111  N         -0.3410   25.3210  -15.3230 N.am  254  SER254     -0.1938
    112  CA        -1.1640   24.2560  -16.0060 C.3   254  SER254      0.2055
    113  C         -1.9110   24.6950  -17.3320 C.2   254  SER254      0.2643
    114  O         -2.0040   23.8940  -18.3880 O.2   254  SER254     -0.2714
    115  CB        -2.2890   23.9980  -14.9350 C.3   254  SER254      0.2130
    116  OG        -2.5210   22.7020  -14.6940 O.3   254  SER254     -0.2179
    117  N         -2.6810   25.8000  -17.0580 N.am  255  ILE255     -0.1963
    118  CA        -3.6670   26.3000  -17.9650 C.3   255  ILE255      0.1727
    119  C         -3.0080   26.8470  -19.2210 C.2   255  ILE255      0.2616
    120  O         -3.5410   26.7640  -20.3480 O.2   255  ILE255     -0.2715
    121  CB        -4.6440   27.1650  -17.0970 C.3   255  ILE255      0.0290
    122  CG1       -5.6410   26.2730  -16.3930 C.3   255  ILE255      0.0022
    123  CG2       -5.2390   28.5590  -17.4460 C.3   255  ILE255      0.0023
    124  CD1       -6.1490   25.0710  -17.1890 C.3   255  ILE255      0.0001
    125  N         -1.8470   27.4980  -19.0000 N.am  256  ASP256     -0.1971
    126  CA        -1.0100   28.1150  -20.0970 C.3   256  ASP256      0.1709
    127  C         -0.5560   26.9710  -21.0180 C.2   256  ASP256      0.2293
    128  O         -0.7500   26.8630  -22.1980 O.2   256  ASP256     -0.2864
    129  CB         0.1540   28.8890  -19.5500 C.3   256  ASP256      0.1436
    130  CG        -0.3500   30.1740  -18.8760 C.2   256  ASP256      0.3671
    131  OD1       -1.5500   30.3860  -18.9720 O.co2 256  ASP256     -0.2456
    132  OD2        0.5080   30.8850  -18.1960 O.co2 256  ASP256     -0.2456
    133  N         -8.7570   27.9640  -14.5690 N.3   268  THR268     -0.1218
    134  CA        -8.4850   27.5380  -13.2470 C.3   268  THR268      0.1862
    135  C         -9.4820   28.1810  -12.3810 C.2   268  THR268      0.2287
    136  O         -9.5750   29.3870  -12.5070 O.2   268  THR268     -0.2866
    137  CB        -7.1310   28.0520  -12.7340 C.3   268  THR268      0.1770
    138  OG1       -6.1720   27.4170  -13.5310 O.3   268  THR268     -0.2211
    139  CG2       -6.7970   27.6380  -11.3450 C.3   268  THR268      0.0375
    140  N        -10.1600   29.3570   -8.3450 N.3   270  GLU270     -0.1245
    141  CA        -9.6300   29.5350   -7.0270 C.3   270  GLU270      0.1567
    142  C        -10.9400   29.5720   -6.1210 C.2   270  GLU270      0.2260
    143  O        -11.7570   30.4910   -6.3170 O.2   270  GLU270     -0.2867
    144  CB        -8.8360   30.8440   -6.8920 C.3   270  GLU270      0.0388
    145  CG        -7.7810   30.8520   -7.9360 C.3   270  GLU270      0.1160
    146  CD        -6.5550   30.1300   -7.4750 C.2   270  GLU270      0.3649
    147  OE1       -6.3990   29.9480   -6.1930 O.co2 270  GLU270     -0.2457
    148  OE2       -5.8280   29.6560   -8.3100 O.co2 270  GLU270     -0.2457
@<TRIPOS>BOND
     1   128   127    2
     2   127   126    1
     3   120   119    2
     4   126   129    1
     5   126   125    1
     6   129   130    1
     7   119   125   am
     8   119   118    1
     9   131   130   ar
    10   130   132   ar
    11   114   113    2
    12   118   121    1
    13   118   117    1
    14   123   121    1
    15   113   117   am
    16   113   112    1
    17   124   122    1
    18   121   122    1
    19   110   109    2
    20    74    75    1
    21    81    79    1
    22   112   111    1
    23   112   115    1
    24   109   111   am
    25   109   108    1
    26    69    68    2
    27    68    67    1
    28   107   108    1
    29    79    78    1
    30   105   104    1
    31   115   116    1
    32    78    75    1
    33    78    80    1
    34    75    76    1
    35   133   134    1
    36    67    66    1
    37    67    70    1
    38    76    77    2
    39   104   103    1
    40   138   137    1
    41    70    71    1
    42   102   103    1
    43    42    41    2
    44   134   137    1
    45   134   135    1
    46   103   106    1
    47   137   139    1
    48    41    40    1
    49    71    72    1
    50    71    73    1
    51    93    92    2
    52   136   135    2
    53    37    36    2
    54    92    91    1
    55    34    33    2
    56    40    39    1
    57    40    43    1
    58    33    39   am
    59    33    32    1
    60    36    38   am
    61    36    35    1
    62    82    83    1
    63    91    90    1
    64    91    94    1
    65    90    84   am
    66    45    44    1
    67    45    46    1
    68    32    35    1
    69    32    31    1
    70    43    44    1
    71    88    86    1
    72    46    47    2
    73    83    84    1
    74    83    86    1
    75    84    85    2
    76    48    47    1
    77    94    95    1
    78    47    49    1
    79    86    87    1
    80    96    95   ar
    81    96    98   ar
    82    59    57   ar
    83    59    58   ar
    84    57    55   ar
    85    95    97   ar
    86    98   100   ar
    87   140   141    1
    88   148   146   ar
    89    58    56   ar
    90    87    89    1
    91   145   146    1
    92   145   144    1
    93    55    56   ar
    94    55    54    1
    95    50    51    1
    96   146   147   ar
    97    97    99   ar
    98   100   101    1
    99   100    99   ar
   100   141   144    1
   101   141   142    1
   102    54    51    1
   103     9    10   ar
   104     9     7   ar
   105    10     8   ar
   106    51    52    1
   107   143   142    2
   108     7     6   ar
   109    30    28    1
   110     8     6   ar
   111    53    52    2
   112    52    60   am
   113     1     2    1
   114     6     5    1
   115    28    29    1
   116    28    27    2
   117    18    17   ar
   118    60    61    1
   119     5     2    1
   120     2     3    1
   121    27    26    1
   122    19    17   ar
   123    61    62    1
   124    61    64    1
   125    17    16    1
   126    63    62    2
   127    23    22    2
   128     3     4    2
   129    26    25    1
   130    25    24    1
   131    64    65    1
   132    16    15    1
   133    22    21    1
   134    15    12    1
   135    14    13    2
   136    24    21    1
   137    21    20    1
   138    12    13    1
   139    12    11    1
