@<TRIPOS>MOLECULE
tmp/1cc5A00.pdb
 211 203 0 0 0
SMALL
GASTEIGER

@<TRIPOS>ATOM
      1  N         -9.6450   -5.5070    2.0990 N.3    10  VAL10      -0.1245
      2  CA        -9.5740   -4.9070    3.4340 C.3    10  VAL10       0.1561
      3  C         -9.9630   -5.8490    4.5790 C.2    10  VAL10       0.2260
      4  O         -9.2810   -5.7750    5.6300 O.2    10  VAL10      -0.2867
      5  CB       -10.3560   -3.5750    3.4790 C.3    10  VAL10       0.0252
      6  CG1      -10.3750   -2.9660    4.8760 C.3    10  VAL10       0.0019
      7  CG2       -9.8260   -2.5750    2.4680 C.3    10  VAL10       0.0019
      8  N         -6.7180   -6.8850    6.9860 N.3    14  TYR14      -0.1227
      9  CA        -6.7630   -6.2470    8.3040 C.3    14  TYR14       0.1736
     10  C         -7.8640   -6.7340    9.2240 C.2    14  TYR14       0.2595
     11  O         -7.6120   -7.0560   10.4030 O.2    14  TYR14      -0.2718
     12  CB        -6.8540   -4.7000    8.1340 C.3    14  TYR14       0.0548
     13  CG        -5.7430   -4.0920    7.2980 C.ar   14  TYR14      -0.0200
     14  CD1       -4.4550   -3.9490    7.7980 C.ar   14  TYR14      -0.0009
     15  CD2       -5.9800   -3.6860    5.9870 C.ar   14  TYR14      -0.0009
     16  CE1       -3.4200   -3.4380    7.0170 C.ar   14  TYR14       0.0417
     17  CE2       -4.9830   -3.1490    5.1920 C.ar   14  TYR14       0.0417
     18  CZ        -3.6890   -3.0250    5.7120 C.ar   14  TYR14       0.1957
     19  OH        -2.7160   -2.4850    4.9190 O.3    14  TYR14      -0.2866
     20  N         -9.0820   -6.7610    8.7150 N.am   15  CYS15      -0.1970
     21  CA       -10.2910   -7.1220    9.4400 C.3    15  CYS15       0.1712
     22  C        -10.4830   -8.5760    9.8180 C.2    15  CYS15       0.2296
     23  O        -11.2400   -8.9190   10.7290 O.2    15  CYS15      -0.2864
     24  CB       -11.4930   -6.6570    8.5810 C.3    15  CYS15       0.0983
     25  SG       -11.4260   -4.8650    8.2560 S.3    15  CYS15      -0.0798
     26  N         -8.5130  -10.9600   11.2080 N.3    17  ALA17      -0.1231
     27  CA        -7.9740  -11.3220   12.4910 C.3    17  ALA17       0.1694
     28  C         -8.9460  -11.5950   13.6150 C.2    17  ALA17       0.2592
     29  O         -8.5940  -12.4920   14.4450 O.2    17  ALA17      -0.2718
     30  CB        -6.9220  -10.2430   12.8450 C.3    17  ALA17       0.0304
     31  N        -10.0700  -10.9080   13.6510 N.am   18  CYS18      -0.1956
     32  CA       -11.0230  -11.1190   14.7540 C.3    18  CYS18       0.1843
     33  C        -12.4190  -11.4470   14.2680 C.2    18  CYS18       0.2625
     34  O        -13.0970  -12.2780   14.9040 O.2    18  CYS18      -0.2714
     35  CB       -11.0490   -9.8970   15.6950 C.3    18  CYS18       0.0997
     36  SG        -9.3720   -9.2480   16.0980 S.3    18  CYS18      -0.0797
     37  N        -12.8240  -10.7920   13.2130 N.am   19  HIS19      -0.1973
     38  CA       -14.1530  -10.9020   12.6250 C.3    19  HIS19       0.1656
     39  C        -14.3490  -12.2210   11.9180 C.2    19  HIS19       0.2291
     40  O        -15.4910  -12.7090   11.8380 O.2    19  HIS19      -0.2864
     41  CB       -14.4840   -9.6770   11.7160 C.3    19  HIS19       0.0771
     42  CG       -14.6650   -8.4180   12.5050 C.ar   19  HIS19       0.0820
     43  ND1      -15.7340   -8.1760   13.3550 N.ar   19  HIS19      -0.2267
     44  CD2      -13.9040   -7.3160   12.5850 C.ar   19  HIS19       0.1154
     45  CE1      -15.5880   -6.9940   13.9040 C.ar   19  HIS19       0.1986
     46  NE2      -14.4930   -6.4320   13.4570 N.ar   19  HIS19      -0.2212
     47  N        -12.4610  -12.4660   20.4110 N.3    24  LEU24      -0.1231
     48  CA       -12.7070  -11.3220   21.3150 C.3    24  LEU24       0.1693
     49  C        -14.1620  -10.8830   21.3300 C.2    24  LEU24       0.2592
     50  O        -14.5240   -9.8750   21.9520 O.2    24  LEU24      -0.2718
     51  CB       -11.6860  -10.2190   20.9330 C.3    24  LEU24       0.0284
     52  CG       -10.4710  -10.0490   21.8150 C.3    24  LEU24       0.0019
     53  CD1      -10.2520  -11.3030   22.6750 C.3    24  LEU24       0.0001
     54  CD2       -9.2250   -9.7260   20.9910 C.3    24  LEU24       0.0001
     55  N        -14.9880  -11.6490   20.6720 N.am   25  ASN25      -0.1960
     56  CA       -16.4250  -11.4750   20.5270 C.3    25  ASN25       0.1819
     57  C        -16.7340  -10.5310   19.3530 C.2    25  ASN25       0.2621
     58  O        -17.7940   -9.9020   19.3000 O.2    25  ASN25      -0.2715
     59  CB       -17.1070  -11.0970   21.8430 C.3    25  ASN25       0.1195
     60  CG       -17.2280  -12.2470   22.8230 C.2    25  ASN25       0.2630
     61  OD1      -16.7240  -12.1870   23.9540 O.2    25  ASN25      -0.2716
     62  ND2      -17.8960  -13.3290   22.4280 N.am   25  ASN25      -0.0877
     63  N        -15.7710  -10.4910   18.4420 N.am   26  ALA26      -0.1964
     64  CA       -15.8600   -9.6940   17.2170 C.3    26  ALA26       0.1713
     65  C        -17.0230  -10.2150   16.3640 C.2    26  ALA26       0.2458
     66  O        -16.9730  -11.3860   15.9560 O.2    26  ALA26      -0.2730
     67  CB       -14.5770   -9.7560   16.4120 C.3    26  ALA26       0.0333
     68  N        -17.9790   -9.3520   16.1350 N.am   27  PRO27      -0.2727
     69  CA       -19.1220   -9.6770   15.2650 C.3    27  PRO27       0.1402
     70  C        -18.5460  -10.2140   13.9530 C.2    27  PRO27       0.2269
     71  O        -17.8640   -9.5190   13.1790 O.2    27  PRO27      -0.2865
     72  CB       -19.9070   -8.3940   15.1160 C.3    27  PRO27       0.0296
     73  CG       -18.9870   -7.2970   15.5870 C.3    27  PRO27       0.0237
     74  CD       -18.0030   -7.9380   16.5690 C.3    27  PRO27       0.0939
     75  N        -24.6520   -7.5210   13.2350 N.3    35  TRP35      -0.1241
     76  CA       -24.2900   -6.2300   12.6580 C.3    35  TRP35       0.1605
     77  C        -25.4660   -5.2640   12.5760 C.2    35  TRP35       0.2264
     78  O        -25.2820   -4.0330   12.6530 O.2    35  TRP35      -0.2867
     79  CB       -23.6290   -6.4430   11.2870 C.3    35  TRP35       0.0550
     80  CG       -22.2750   -7.0540   11.3500 C.ar   35  TRP35       0.0003
     81  CD1      -21.9620   -8.3840   11.2940 C.ar   35  TRP35       0.0946
     82  CD2      -21.0320   -6.3620   11.4650 C.ar   35  TRP35       0.0152
     83  NE1      -20.6090   -8.5660   11.3560 N.ar   35  TRP35      -0.2442
     84  CE2      -20.0040   -7.3430   11.4740 C.ar   35  TRP35       0.0810
     85  CE3      -20.6850   -5.0180   11.5900 C.ar   35  TRP35       0.0012
     86  CZ2      -18.6620   -7.0130   11.5920 C.ar   35  TRP35       0.0191
     87  CZ3      -19.3460   -4.6850   11.6890 C.ar   35  TRP35       0.0001
     88  CH2      -18.3630   -5.6660   11.7190 C.ar   35  TRP35       0.0015
     89  N        -26.5930   -3.3340   15.6990 N.3    38  ARG38      -0.1245
     90  CA       -25.4650   -2.4440   15.7820 C.3    38  ARG38       0.1563
     91  C        -25.7360   -1.1180   15.0620 C.2    38  ARG38       0.2260
     92  O        -25.6070   -0.0480   15.6900 O.2    38  ARG38      -0.2867
     93  CB       -24.2150   -3.0430   15.1280 C.3    38  ARG38       0.0307
     94  CG       -23.2340   -3.6380   16.0680 C.3    38  ARG38       0.0489
     95  CD       -23.7490   -4.6300   17.0310 C.3    38  ARG38       0.2205
     96  NE       -22.7430   -5.6420   17.3000 N.pl3  38  ARG38      -0.0865
     97  CZ       -21.4830   -5.4830   17.6620 C.cat  38  ARG38       0.5346
     98  NH1      -20.7430   -6.5510   17.9910 N.pl3  38  ARG38       0.1354
     99  NH2      -20.9150   -4.2880   17.6810 N.pl3  38  ARG38       0.1354
    100  N        -26.5090    2.8160   16.4430 N.3    42  LYS42      -0.1245
    101  CA       -25.7300    3.9790   16.0500 C.3    42  LYS42       0.1561
    102  C        -26.1250    4.7010   14.7760 C.2    42  LYS42       0.2260
    103  O        -25.3190    5.4230   14.1520 O.2    42  LYS42      -0.2867
    104  CB       -24.2280    3.5740   15.9650 C.3    42  LYS42       0.0271
    105  CG       -23.6550    3.2930   17.3640 C.3    42  LYS42       0.0035
    106  CD       -22.5750    2.2220   17.3470 C.3    42  LYS42       0.0206
    107  CE       -22.0000    1.9980   18.7510 C.3    42  LYS42       0.1093
    108  NZ       -21.2720    3.2060   19.2180 N.3    42  LYS42      -0.1314
    109  N        -22.1200    4.9580   12.1540 N.3    47  GLY47      -0.1210
    110  CA       -22.2360    4.6460   13.5710 C.3    47  GLY47       0.1956
    111  C        -21.3350    3.4170   13.7210 C.2    47  GLY47       0.2611
    112  O        -21.0940    2.9640   14.8550 O.2    47  GLY47      -0.2717
    113  N        -20.9450    2.9180   12.5490 N.am   48  LEU48      -0.1979
    114  CA       -20.0410    1.7370   12.5420 C.3    48  LEU48       0.1596
    115  C        -18.6890    2.2910   12.0770 C.2    48  LEU48       0.2287
    116  O        -17.6440    1.9970   12.6590 O.2    48  LEU48      -0.2864
    117  CB       -20.6580    0.6160   11.7430 C.3    48  LEU48       0.0297
    118  CG       -22.0950    0.2040   12.0370 C.3    48  LEU48       0.0022
    119  CD1      -22.2830   -1.2150   11.5060 C.3    48  LEU48       0.0001
    120  CD2      -22.4320    0.2420   13.5230 C.3    48  LEU48       0.0001
    121  N        -17.7160    4.7810   14.1770 N.3    51  GLN51      -0.1231
    122  CA       -17.3720    3.8950   15.2840 C.3    51  GLN51       0.1698
    123  C        -16.0030    3.2440   15.1560 C.2    51  GLN51       0.2592
    124  O        -15.2720    3.2670   16.1730 O.2    51  GLN51      -0.2718
    125  CB       -18.4420    2.8080   15.4770 C.3    51  GLN51       0.0381
    126  CG       -18.8390    2.5430   16.8820 C.3    51  GLN51       0.0905
    127  CD       -18.0090    1.5950   17.6900 C.2    51  GLN51       0.2608
    128  OE1      -17.0250    0.9610   17.2810 O.2    51  GLN51      -0.2717
    129  NE2      -18.4820    1.4550   18.9440 N.am   51  GLN51      -0.0878
    130  N        -15.7050    2.7120   13.9770 N.am   52  SER52      -0.1952
    131  CA       -14.4280    2.0250   13.7580 C.3    52  SER52       0.1924
    132  C        -13.2460    2.9830   13.9440 C.2    52  SER52       0.2314
    133  O        -12.2800    2.5860   14.5800 O.2    52  SER52      -0.2863
    134  CB       -14.2670    1.3600   12.4090 C.3    52  SER52       0.2116
    135  OG       -15.4730    0.9520   11.8330 O.3    52  SER52      -0.2180
    136  N        -13.7610    0.8480   19.7100 N.3    56  LEU56      -0.1231
    137  CA       -14.5880    0.4950   20.8560 C.3    56  LEU56       0.1693
    138  C        -14.1210   -0.7750   21.5510 C.2    56  LEU56       0.2592
    139  O        -14.2480   -1.9050   21.0730 O.2    56  LEU56      -0.2718
    140  CB       -16.0280    0.3660   20.3470 C.3    56  LEU56       0.0284
    141  CG       -17.0620   -0.2440   21.2800 C.3    56  LEU56       0.0019
    142  CD1      -17.7860    0.8620   22.0420 C.3    56  LEU56       0.0001
    143  CD2      -18.0750   -1.0810   20.4760 C.3    56  LEU56       0.0001
    144  N        -13.6210   -0.5700   22.7570 N.am   57  ASN57      -0.1960
    145  CA       -13.1260   -1.5540   23.6890 C.3    57  ASN57       0.1819
    146  C        -11.9270   -2.3830   23.2610 C.2    57  ASN57       0.2621
    147  O        -10.8190   -2.1180   23.7490 O.2    57  ASN57      -0.2715
    148  CB       -14.2670   -2.4610   24.2030 C.3    57  ASN57       0.1195
    149  CG       -15.1930   -1.8160   25.2140 C.2    57  ASN57       0.2630
    150  OD1      -14.8070   -1.4200   26.3420 O.2    57  ASN57      -0.2716
    151  ND2      -16.4680   -1.7000   24.8370 N.am   57  ASN57      -0.0877
    152  N        -12.1670   -3.4250   22.5150 N.am   58  ALA58      -0.1963
    153  CA       -11.1480   -4.3950   22.0920 C.3    58  ALA58       0.1728
    154  C        -11.0160   -4.3630   20.5690 C.2    58  ALA58       0.2616
    155  O        -10.1250   -4.9710   19.9680 O.2    58  ALA58      -0.2715
    156  CB       -11.4760   -5.7840   22.5840 C.3    58  ALA58       0.0334
    157  N        -11.9760   -3.6770   20.0050 N.am   59  MET59      -0.1964
    158  CA       -12.0130   -3.3730   18.5500 C.3    59  MET59       0.1722
    159  C        -11.0240   -2.1860   18.5370 C.2    59  MET59       0.2458
    160  O        -11.2840   -1.2100   19.2590 O.2    59  MET59      -0.2730
    161  CB       -13.4350   -3.0460   18.1690 C.3    59  MET59       0.0427
    162  CG       -13.6590   -2.1580   17.0060 C.3    59  MET59       0.0599
    163  SD       -12.8800   -2.8690   15.5260 S.3    59  MET59      -0.1393
    164  CE       -12.8680   -1.4190   14.4610 C.3    59  MET59       0.0692
    165  N         -9.9170   -2.3970   17.8690 N.am   60  PRO60      -0.2727
    166  CA        -8.8660   -1.3570   17.7840 C.3    60  PRO60       0.1402
    167  C         -9.4020   -0.2450   16.8930 C.2    60  PRO60       0.2269
    168  O        -10.1460   -0.5280   15.9310 O.2    60  PRO60      -0.2865
    169  CB        -7.6540   -2.0690   17.2470 C.3    60  PRO60       0.0296
    170  CG        -8.1440   -3.3420   16.6170 C.3    60  PRO60       0.0237
    171  CD        -9.5870   -3.5700   17.0540 C.3    60  PRO60       0.0939
    172  N        -10.8980    0.5890   12.5050 N.3    63  GLY63      -0.1210
    173  CA       -10.9350   -0.7910   11.9180 C.3    63  GLY63       0.1956
    174  C         -9.5210   -1.3540   12.1960 C.2    63  GLY63       0.2612
    175  O         -9.1450   -2.2670   12.9120 O.2    63  GLY63      -0.2717
    176  N         -8.5790   -0.7230   11.5780 N.am   64  THR64      -0.1952
    177  CA        -7.1900   -0.6840   11.4280 C.3    64  THR64       0.1897
    178  C         -6.9570   -0.7200    9.8710 C.2    64  THR64       0.2313
    179  O         -7.7040   -1.0820    8.9980 O.2    64  THR64      -0.2863
    180  CB        -6.1220   -1.6180   12.0900 C.3    64  THR64       0.1794
    181  OG1       -4.8760   -1.3720   11.2740 O.3    64  THR64      -0.2208
    182  CG2       -6.3740   -3.1260   12.1850 C.3    64  THR64       0.0378
    183  N        -13.1380    1.8630    4.6810 N.3    73  LEU73      -0.1245
    184  CA       -13.5320    1.4170    6.0290 C.3    73  LEU73       0.1561
    185  C        -15.0020    1.0320    6.0000 C.2    73  LEU73       0.2260
    186  O        -15.4540    0.1350    6.7160 O.2    73  LEU73      -0.2867
    187  CB       -13.0780    2.5760    6.9180 C.3    73  LEU73       0.0270
    188  CG       -12.4740    2.2760    8.2730 C.3    73  LEU73       0.0019
    189  CD1      -13.5860    2.3390    9.3120 C.3    73  LEU73       0.0001
    190  CD2      -11.7610    0.9310    8.2860 C.3    73  LEU73       0.0001
    191  N        -15.6270   -2.2200    3.7980 N.3    76  ALA76      -0.1231
    192  CA       -15.2170   -3.4250    4.5490 C.3    76  ALA76       0.1694
    193  C        -16.2100   -3.6510    5.6980 C.2    76  ALA76       0.2591
    194  O        -16.1790   -4.7010    6.3460 O.2    76  ALA76      -0.2718
    195  CB       -13.7850   -3.3160    5.0270 C.3    76  ALA76       0.0304
    196  N        -17.0110   -2.6260    5.9300 N.am   77  ILE77      -0.1980
    197  CA       -18.0610   -2.6660    6.9450 C.3    77  ILE77       0.1595
    198  C        -19.2750   -3.1840    6.1580 C.2    77  ILE77       0.2287
    199  O        -19.9450   -4.0680    6.6390 O.2    77  ILE77      -0.2864
    200  CB       -18.3380   -1.3610    7.7270 C.3    77  ILE77       0.0276
    201  CG1      -17.2750   -1.1660    8.8490 C.3    77  ILE77       0.0022
    202  CG2      -19.7830   -1.3200    8.3110 C.3    77  ILE77       0.0022
    203  CD1      -17.2120    0.2920    9.3900 C.3    77  ILE77       0.0001
    204  N        -18.7580   -6.9240    5.8950 N.3    80  MET80      -0.1245
    205  CA       -18.5180   -7.7760    7.0870 C.3    80  MET80       0.1570
    206  C        -19.9850   -8.0740    7.5090 C.2    80  MET80       0.2261
    207  O        -20.4710   -9.1210    7.8610 O.2    80  MET80      -0.2867
    208  CB       -17.6590   -7.1880    8.1780 C.3    80  MET80       0.0387
    209  CG       -16.2020   -7.3620    7.8180 C.3    80  MET80       0.0595
    210  SD       -15.0990   -6.8090    9.1340 S.3    80  MET80      -0.1393
    211  CE       -15.9090   -5.2910    9.6800 C.3    80  MET80       0.0692
@<TRIPOS>BOND
     1     1     2    1
     2     7     5    1
     3     2     5    1
     4     2     3    1
     5     5     6    1
     6   191   192    1
     7   192   195    1
     8   192   193    1
     9     3     4    2
    10   183   184    1
    11    19    18    1
    12    17    18   ar
    13    17    15   ar
    14   193   196   am
    15   193   194    2
    16    18    16   ar
    17   204   205    1
    18   196   197    1
    19    15    13   ar
    20   185   184    1
    21   185   186    2
    22   184   187    1
    23   198   199    2
    24   198   197    1
    25   187   188    1
    26   197   200    1
    27     8     9    1
    28    16    14   ar
    29   205   206    1
    30   205   208    1
    31    13    14   ar
    32    13    12    1
    33   206   207    2
    34   200   202    1
    35   200   201    1
    36   209   208    1
    37   209   210    1
    38    12     9    1
    39    25    24    1
    40   188   190    1
    41   188   189    1
    42     9    10    1
    43    24    21    1
    44    20    10   am
    45    20    21    1
    46   201   203    1
    47   179   178    2
    48   210   211    1
    49    10    11    2
    50    21    22    1
    51    22    23    2
    52   178   177    1
    53    26    27    1
    54   181   180    1
    55    79    80    1
    56    79    76    1
    57    81    80   ar
    58    81    83   ar
    59    80    82   ar
    60    83    84   ar
    61   177   176    1
    62   177   180    1
    63    82    84   ar
    64    82    85   ar
    65    84    86   ar
    66   119   118    1
    67   176   174   am
    68    85    87   ar
    69    86    88   ar
    70    87    88   ar
    71    41    42    1
    72    41    38    1
    73   117   118    1
    74   117   114    1
    75   135   134    1
    76    40    39    2
    77   173   174    1
    78   173   172    1
    79    39    38    1
    80   118   120    1
    81   115   114    1
    82   115   116    2
    83   180   182    1
    84   109   110    1
    85   174   175    2
    86   134   131    1
    87    27    30    1
    88    27    28    1
    89    42    44   ar
    90    42    43   ar
    91   114   113    1
    92   113   111   am
    93    77    78    2
    94    77    76    1
    95    44    46   ar
    96    38    37    1
    97    76    75    1
    98    71    70    2
    99    37    33   am
   100    43    45   ar
   101    46    45   ar
   102   110   111    1
   103    28    31   am
   104    28    29    2
   105    31    32    1
   106   111   112    2
   107   131   132    1
   108   131   130    1
   109   132   133    2
   110    70    69    1
   111   130   123   am
   112   103   102    2
   113   121   122    1
   114    33    32    1
   115    33    34    2
   116   164   163    1
   117    32    35    1
   118   102   101    1
   119    91    92    2
   120    91    90    1
   121    72    69    1
   122    72    73    1
   123    93    90    1
   124    93    94    1
   125   123   122    1
   126   123   124    2
   127    69    68    1
   128   122   125    1
   129   125   126    1
   130   163   162    1
   131    73    74    1
   132    35    36    1
   133    89    90    1
   134   168   167    2
   135    66    65    2
   136   104   101    1
   137   104   105    1
   138   101   100    1
   139    94    95    1
   140    68    65   am
   141    68    74    1
   142    65    64    1
   143    67    64    1
   144   170   171    1
   145   170   169    1
   146   126   127    1
   147   167   166    1
   148   162   161    1
   149    95    96    1
   150   171   165    1
   151    64    63    1
   152   169   166    1
   153   128   127    2
   154    96    97    2
   155   106   105    1
   156   106   107    1
   157    97    99    1
   158    97    98    1
   159   127   129   am
   160   166   165    1
   161   165   159   am
   162   161   158    1
   163    63    57   am
   164   159   158    1
   165   159   160    2
   166   158   157    1
   167   107   108    1
   168    58    57    2
   169    57    56    1
   170   136   137    1
   171   155   154    2
   172   157   154   am
   173   140   137    1
   174   140   141    1
   175    47    48    1
   176   143   141    1
   177    56    55    1
   178    56    59    1
   179   154   153    1
   180    55    49   am
   181   137   138    1
   182    51    48    1
   183    51    52    1
   184    54    52    1
   185   139   138    2
   186   141   142    1
   187    48    49    1
   188    49    50    2
   189   138   144   am
   190    52    53    1
   191    59    60    1
   192   153   152    1
   193   153   156    1
   194    62    60   am
   195   152   146   am
   196   144   145    1
   197    60    61    2
   198   146   145    1
   199   146   147    2
   200   145   148    1
   201   148   149    1
   202   151   149   am
   203   149   150    2
