@<TRIPOS>MOLECULE
tmp/1cciA00.pdb
 86 84 0 0 0
SMALL
GASTEIGER

@<TRIPOS>ATOM
      1  N         28.8040   88.9520   49.3450 N.3   172  HIS172     -0.1226
      2  CA        29.6340   90.0030   48.7490 C.3   172  HIS172      0.1752
      3  C         30.1440   89.7040   47.3550 C.2   172  HIS172      0.2596
      4  O         30.8500   90.5290   46.7860 O.2   172  HIS172     -0.2718
      5  CB        30.8440   90.3820   49.6100 C.3   172  HIS172      0.0759
      6  CG        30.4920   91.4300   50.6580 C.ar  172  HIS172      0.0818
      7  ND1       31.1230   91.7530   51.7890 N.ar  172  HIS172     -0.2268
      8  CD2       29.3770   92.2490   50.6040 C.ar  172  HIS172      0.1154
      9  CE1       30.4500   92.7190   52.4040 C.ar  172  HIS172      0.1986
     10  NE2       29.3930   93.0030   51.6860 N.ar  172  HIS172     -0.2212
     11  N         29.7670   88.5600   46.7840 N.am  173  ALA173     -0.1966
     12  CA        29.9550   88.3900   45.3430 C.3   173  ALA173      0.1728
     13  C         28.9550   89.2280   44.5160 C.2   173  ALA173      0.2616
     14  O         29.1160   89.3980   43.3100 O.2   173  ALA173     -0.2715
     15  CB        29.7480   86.9340   44.9190 C.3   173  ALA173      0.0334
     16  N         27.8830   89.7330   45.1350 N.am  174  LEU174     -0.1963
     17  CA        26.8490   90.5160   44.4690 C.3   174  LEU174      0.1728
     18  C         27.1430   92.0010   44.4640 C.2   174  LEU174      0.2617
     19  O         27.7720   92.4660   45.4120 O.2   174  LEU174     -0.2715
     20  CB        25.5020   90.3360   45.1580 C.3   174  LEU174      0.0311
     21  CG        24.9690   88.8910   45.2680 C.3   174  LEU174      0.0022
     22  CD1       23.8480   88.8280   46.3200 C.3   174  LEU174      0.0001
     23  CD2       24.5330   88.4130   43.8730 C.3   174  LEU174      0.0001
     24  N         26.7390   92.7530   43.4270 N.am  175  GLY175     -0.1940
     25  CA        26.7980   94.2180   43.4400 C.3   175  GLY175      0.2014
     26  C         28.1770   94.8570   43.4570 C.2   175  GLY175      0.2639
     27  O         29.1660   94.3150   42.9480 O.2   175  GLY175     -0.2714
     28  N         28.2730   96.0500   44.0240 N.am  176  LYS176     -0.1963
     29  CA        29.5460   96.7580   44.0550 C.3   176  LYS176      0.1728
     30  C         29.6290   97.7450   45.2090 C.2   176  LYS176      0.2616
     31  O         28.6480   98.0250   45.8880 O.2   176  LYS176     -0.2715
     32  CB        29.7520   97.5060   42.7310 C.3   176  LYS176      0.0311
     33  CG        28.6960   98.5610   42.4500 C.3   176  LYS176      0.0038
     34  CD        28.8050   99.1180   41.0330 C.3   176  LYS176      0.0206
     35  CE        30.0420   99.9680   40.7240 C.3   176  LYS176      0.1093
     36  NZ        30.1870  101.1250   41.5950 N.3   176  LYS176     -0.1314
     37  N         30.8090   98.3080   45.4620 N.am  177  THR177     -0.1951
     38  CA        30.9720   99.3570   46.4840 C.3   177  THR177      0.1897
     39  C         30.9470  100.7130   45.7720 C.2   177  THR177      0.2313
     40  O         31.1640  100.8450   44.5680 O.2   177  THR177     -0.2863
     41  CB        32.3200   99.2130   47.2640 C.3   177  THR177      0.1794
     42  OG1       33.3190   99.5680   46.3050 O.3   177  THR177     -0.2208
     43  CG2       32.5740   97.8080   47.8800 C.3   177  THR177      0.0378
     44  N         34.8850   99.7760   43.3640 N.3   186  GLY186     -0.1210
     45  CA        35.0060   98.5790   42.5580 C.3   186  GLY186      0.1940
     46  C         33.9750   97.5110   42.9360 C.2   186  GLY186      0.2453
     47  O         33.2150   97.7150   43.8900 O.2   186  GLY186     -0.2732
     48  N         33.8880   96.3430   42.2810 N.am  187  PRO187     -0.2728
     49  CA        34.7010   95.8910   41.1580 C.3   187  PRO187      0.1401
     50  C         34.6740   96.7220   39.8720 C.2   187  PRO187      0.2269
     51  O         33.7820   97.5450   39.6780 O.2   187  PRO187     -0.2865
     52  CB        34.2350   94.4890   40.9290 C.3   187  PRO187      0.0296
     53  CG        33.6630   94.0760   42.2400 C.3   187  PRO187      0.0237
     54  CD        32.9080   95.3310   42.5860 C.3   187  PRO187      0.0939
     55  N         37.6980   93.4010   43.5030 N.3   227  MET227     -0.1230
     56  CA        38.2180   93.9720   44.7420 C.3   227  MET227      0.1702
     57  C         37.7150   93.2160   45.9690 C.2   227  MET227      0.2592
     58  O         36.8760   92.3280   45.8730 O.2   227  MET227     -0.2718
     59  CB        37.8480   95.4760   44.9020 C.3   227  MET227      0.0401
     60  CG        36.4120   95.9320   45.1710 C.3   227  MET227      0.0596
     61  SD        35.7260   95.6400   46.8300 S.3   227  MET227     -0.1393
     62  CE        36.2350   97.1180   47.6560 C.3   227  MET227      0.0692
     63  N         38.2400   93.4990   47.1460 N.am  228  MET228     -0.1965
     64  CA        37.8240   92.9140   48.4110 C.3   228  MET228      0.1736
     65  C         38.1210   93.9520   49.4780 C.2   228  MET228      0.2616
     66  O         39.0940   94.7220   49.4220 O.2   228  MET228     -0.2715
     67  CB        38.6160   91.6390   48.8220 C.3   228  MET228      0.0427
     68  CG        38.4700   90.3000   48.0900 C.3   228  MET228      0.0599
     69  SD        36.8020   89.6160   48.2600 S.3   228  MET228     -0.1393
     70  CE        36.7530   88.4240   46.9600 C.3   228  MET228      0.0692
     71  N         37.2430   93.9550   50.4700 N.am  229  LEU229     -0.1977
     72  CA        37.4130   94.7760   51.6800 C.3   229  LEU229      0.1596
     73  C         38.4330   94.1110   52.6060 C.2   229  LEU229      0.2287
     74  O         38.5390   92.8690   52.5680 O.2   229  LEU229     -0.2864
     75  CB        36.0760   94.8980   52.4500 C.3   229  LEU229      0.0297
     76  CG        34.8790   95.4900   51.7010 C.3   229  LEU229      0.0022
     77  CD1       33.5860   95.2160   52.4800 C.3   229  LEU229      0.0001
     78  CD2       35.1250   96.9700   51.5030 C.3   229  LEU229      0.0001
     79  N         36.7200   91.2480   54.1750 N.3   232  ASP232     -0.1239
     80  CA        36.5820   90.1060   53.2450 C.3   232  ASP232      0.1674
     81  C         37.8310   89.2530   53.0590 C.2   232  ASP232      0.2266
     82  O         37.8060   88.0120   52.9610 O.2   232  ASP232     -0.2867
     83  CB        36.2010   90.5410   51.8120 C.3   232  ASP232      0.1410
     84  CG        34.8360   91.1930   51.5860 C.2   232  ASP232      0.3668
     85  OD1       33.8330   90.6650   52.0760 O.co2 232  ASP232     -0.2456
     86  OD2       34.7730   92.2000   50.8800 O.co2 232  ASP232     -0.2456
@<TRIPOS>BOND
     1    51    50    2
     2    50    49    1
     3    35    34    1
     4    35    36    1
     5    52    49    1
     6    52    53    1
     7    34    33    1
     8    49    48    1
     9    53    54    1
    10    48    54    1
    11    48    46   am
    12    33    32    1
    13    45    46    1
    14    45    44    1
    15    32    29    1
    16    46    47    2
    17    27    26    2
    18    14    13    2
    19    24    25    1
    20    24    18   am
    21    25    26    1
    22    26    28   am
    23    55    56    1
    24    23    21    1
    25    28    29    1
    26    29    30    1
    27    18    17    1
    28    18    19    2
    29    17    16    1
    30    17    20    1
    31    13    16   am
    32    13    12    1
    33    40    39    2
    34    56    59    1
    35    56    57    1
    36    59    60    1
    37    15    12    1
    38    20    21    1
    39    60    61    1
    40    30    37   am
    41    30    31    2
    42    21    22    1
    43    12    11    1
    44    37    38    1
    45    39    38    1
    46    58    57    2
    47    57    63   am
    48    42    41    1
    49    38    41    1
    50    11     3   am
    51     4     3    2
    52    61    62    1
    53    70    69    1
    54    63    64    1
    55    41    43    1
    56     3     2    1
    57    68    69    1
    58    68    67    1
    59    64    67    1
    60    64    65    1
    61     2     1    1
    62     2     5    1
    63    66    65    2
    64    65    71   am
    65     5     6    1
    66    71    72    1
    67     8     6   ar
    68     8    10   ar
    69     6     7   ar
    70    86    84   ar
    71    78    76    1
    72    84    83    1
    73    84    85   ar
    74    72    75    1
    75    72    73    1
    76    10     9   ar
    77    76    75    1
    78    76    77    1
    79     7     9   ar
    80    83    80    1
    81    74    73    2
    82    82    81    2
    83    81    80    1
    84    80    79    1
