@<TRIPOS>MOLECULE
tmp/1ccwD00.pdb
 222 217 0 0 0
SMALL
GASTEIGER

@<TRIPOS>ATOM
      1  N          6.4790   30.8430   74.9160 N.3    66  ARG66      -0.1245
      2  CA         7.0070   32.1610   75.2200 C.3    66  ARG66       0.1563
      3  C          8.5340   32.1210   75.1060 C.2    66  ARG66       0.2260
      4  O          9.1140   31.1300   75.5520 O.2    66  ARG66      -0.2867
      5  CB         6.6760   32.6080   76.6420 C.3    66  ARG66       0.0307
      6  CG         5.1980   32.8420   76.8100 C.3    66  ARG66       0.0489
      7  CD         4.9020   33.3160   78.2280 C.3    66  ARG66       0.2205
      8  NE         3.5190   33.7530   78.1820 N.pl3  66  ARG66      -0.0865
      9  CZ         2.5710   32.9460   78.6210 C.cat  66  ARG66       0.5346
     10  NH1        2.6140   31.7460   79.1510 N.pl3  66  ARG66       0.1354
     11  NH2        1.3850   33.4680   78.4910 N.pl3  66  ARG66       0.1354
     12  N          9.0160   37.2850   72.8110 N.3    94  THR94      -0.1218
     13  CA         8.6850   37.9500   74.0680 C.3    94  THR94       0.1862
     14  C          9.5820   39.1610   74.2060 C.2    94  THR94       0.2287
     15  O         10.8200   39.0060   74.1700 O.2    94  THR94      -0.2866
     16  CB         8.8370   36.9670   75.2360 C.3    94  THR94       0.1770
     17  OG1        7.9350   35.8580   74.9870 O.3    94  THR94      -0.2211
     18  CG2        8.5580   37.6850   76.5560 C.3    94  THR94       0.0375
     19  N         11.1030   43.8210   79.3440 N.3    97  ALA97      -0.1245
     20  CA        10.2800   44.7370   80.1280 C.3    97  ALA97       0.1562
     21  C         10.7250   46.2000   80.0880 C.2    97  ALA97       0.2260
     22  O          9.9050   47.0610   80.4180 O.2    97  ALA97      -0.2867
     23  CB        10.2660   44.2630   81.5840 C.3    97  ALA97       0.0290
     24  N          8.8490   47.7190   77.3000 N.3   100  ARG100     -0.1245
     25  CA         7.4530   47.8410   77.6840 C.3   100  ARG100      0.1563
     26  C          7.1280   49.1530   78.3830 C.2   100  ARG100      0.2260
     27  O          5.9680   49.5520   78.3490 O.2   100  ARG100     -0.2867
     28  CB         7.0650   46.6490   78.5670 C.3   100  ARG100      0.0307
     29  CG         7.1830   45.3070   77.8660 C.3   100  ARG100      0.0489
     30  CD         6.7570   44.2030   78.7920 C.3   100  ARG100      0.2205
     31  NE         7.1750   42.8900   78.3230 N.pl3 100  ARG100     -0.0865
     32  CZ         6.5870   41.7420   78.6450 C.cat 100  ARG100      0.5346
     33  NH1        5.5360   41.7120   79.4600 N.pl3 100  ARG100      0.1354
     34  NH2        7.0590   40.6110   78.1440 N.pl3 100  ARG100      0.1354
     35  N         15.0980   40.2190   79.9420 N.3   123  ASN123     -0.1240
     36  CA        14.0860   39.1580   80.0200 C.3   123  ASN123      0.1653
     37  C         13.2340   39.0660   78.7490 C.2   123  ASN123      0.2266
     38  O         12.1180   38.5320   78.7460 O.2   123  ASN123     -0.2867
     39  CB        13.2030   39.3620   81.2490 C.3   123  ASN123      0.1155
     40  CG        12.4590   40.6730   81.2490 C.2   123  ASN123      0.2627
     41  OD1       12.3720   41.3970   80.2620 O.2   123  ASN123     -0.2716
     42  ND2       11.9050   40.9610   82.4180 N.am  123  ASN123     -0.0877
     43  N         -2.6200   44.8050   84.4250 N.3   180  PRO180     -0.2102
     44  CA        -1.6840   43.8620   85.0190 C.3   180  PRO180      0.1504
     45  C         -0.2160   44.2920   85.0120 C.2   180  PRO180      0.2575
     46  O          0.6190   43.6580   85.6850 O.2   180  PRO180     -0.2718
     47  CB        -1.8150   42.6020   84.1270 C.3   180  PRO180      0.0282
     48  CG        -3.1000   42.7920   83.3650 C.3   180  PRO180      0.0208
     49  CD        -3.1690   44.3060   83.1640 C.3   180  PRO180      0.0893
     50  N          0.1400   45.3340   84.2510 N.am  181  TYR181     -0.1977
     51  CA         1.4950   45.6400   83.8810 C.3   181  TYR181      0.1639
     52  C          1.9990   47.0290   84.2850 C.2   181  TYR181      0.2290
     53  O          3.2000   47.2970   84.1330 O.2   181  TYR181     -0.2864
     54  CB         1.6660   45.5400   82.3550 C.3   181  TYR181      0.0560
     55  CG         1.6350   44.1190   81.8260 C.ar  181  TYR181     -0.0198
     56  CD1        2.7380   43.3010   81.9140 C.ar  181  TYR181     -0.0009
     57  CD2        0.4750   43.6230   81.2470 C.ar  181  TYR181     -0.0009
     58  CE1        2.7040   42.0110   81.4330 C.ar  181  TYR181      0.0417
     59  CE2        0.4220   42.3360   80.7630 C.ar  181  TYR181      0.0417
     60  CZ         1.5400   41.5330   80.8550 C.ar  181  TYR181      0.1957
     61  OH         1.5220   40.2300   80.3830 O.3   181  TYR181     -0.2866
     62  N         -4.9950   39.9940   75.6950 N.3   216  PHE216     -0.1241
     63  CA        -4.3080   39.1800   76.6880 C.3   216  PHE216      0.1605
     64  C         -5.2440   38.7030   77.7840 C.2   216  PHE216      0.2264
     65  O         -5.5410   39.3530   78.7840 O.2   216  PHE216     -0.2867
     66  CB        -3.1270   39.9520   77.2890 C.3   216  PHE216      0.0534
     67  CG        -2.3990   39.2320   78.4190 C.ar  216  PHE216     -0.0203
     68  CD1       -1.9510   37.9200   78.2600 C.ar  216  PHE216     -0.0042
     69  CD2       -2.1790   39.8890   79.6230 C.ar  216  PHE216     -0.0042
     70  CE1       -1.3140   37.2840   79.3110 C.ar  216  PHE216     -0.0003
     71  CE2       -1.5350   39.2340   80.6660 C.ar  216  PHE216     -0.0003
     72  CZ        -1.1010   37.9430   80.5270 C.ar  216  PHE216     -0.0000
     73  N         -4.6150   38.2410   82.2310 N.3   219  LEU219     -0.1231
     74  CA        -4.4410   39.4350   83.0780 C.3   219  LEU219      0.1693
     75  C         -3.3720   39.1770   84.1280 C.2   219  LEU219      0.2593
     76  O         -2.2000   38.9550   83.7500 O.2   219  LEU219     -0.2718
     77  CB        -5.8050   39.8500   83.6080 C.3   219  LEU219      0.0284
     78  CG        -6.8740   40.1760   82.5550 C.3   219  LEU219      0.0019
     79  CD1       -8.2660   40.3500   83.1590 C.3   219  LEU219      0.0001
     80  CD2       -6.4980   41.4170   81.7840 C.3   219  LEU219      0.0001
     81  N         -3.6780   39.2260   85.4220 N.am  220  THR220     -0.1939
     82  CA        -2.6860   39.0240   86.4520 C.3   220  THR220      0.2028
     83  C         -2.3640   37.5470   86.7080 C.2   220  THR220      0.2643
     84  O         -1.4950   37.2340   87.5050 O.2   220  THR220     -0.2714
     85  CB        -3.1660   39.6100   87.7960 C.3   220  THR220      0.1808
     86  OG1       -4.4790   39.0660   88.0390 O.3   220  THR220     -0.2208
     87  CG2       -3.2590   41.1160   87.6930 C.3   220  THR220      0.0379
     88  N         -3.0600   36.6440   86.0310 N.am  221  GLY221     -0.1939
     89  CA        -2.7970   35.2310   86.1320 C.3   221  GLY221      0.2014
     90  C         -3.1320   34.5950   87.4540 C.2   221  GLY221      0.2639
     91  O         -2.7510   33.4490   87.7000 O.2   221  GLY221     -0.2714
     92  N         -3.8510   35.3360   88.2910 N.am  222  THR222     -0.1950
     93  CA        -4.0510   34.9550   89.6800 C.3   222  THR222      0.1897
     94  C         -5.5330   35.0180   90.0760 C.2   222  THR222      0.2313
     95  O         -6.0640   36.0680   90.4370 O.2   222  THR222     -0.2863
     96  CB        -3.2090   35.8900   90.5740 C.3   222  THR222      0.1794
     97  OG1       -1.8340   35.8550   90.1210 O.3   222  THR222     -0.2208
     98  CG2       -3.2360   35.4100   92.0140 C.3   222  THR222      0.0378
     99  N         -1.2930   30.1130   84.7140 N.3   294  MET294     -0.1230
    100  CA        -0.5260   31.3450   84.7750 C.3   294  MET294      0.1702
    101  C         -0.1490   31.7790   86.1800 C.2   294  MET294      0.2593
    102  O          0.4790   32.8360   86.3470 O.2   294  MET294     -0.2718
    103  CB        -1.2950   32.4620   84.0360 C.3   294  MET294      0.0401
    104  CG        -1.4540   32.1680   82.5460 C.3   294  MET294      0.0596
    105  SD         0.0720   32.4070   81.5670 S.3   294  MET294     -0.1393
    106  CE         0.1240   34.2070   81.5470 C.3   294  MET294      0.0692
    107  N         -0.5110   31.0030   87.1910 N.am  295  GLY295     -0.1942
    108  CA        -0.1380   31.3020   88.5710 C.3   295  GLY295      0.2014
    109  C          1.1590   30.6000   88.9430 C.2   295  GLY295      0.2639
    110  O          1.9280   30.0400   88.1360 O.2   295  GLY295     -0.2714
    111  N          1.5170   30.6320   90.2300 N.am  296  GLY296     -0.1939
    112  CA         2.7800   29.9630   90.5550 C.3   296  GLY296      0.2014
    113  C          2.8670   28.4790   90.2630 C.2   296  GLY296      0.2638
    114  O          1.8910   27.7600   90.5320 O.2   296  GLY296     -0.2714
    115  N          4.0170   27.9970   89.7850 N.am  297  PHE297     -0.1973
    116  CA         4.2650   26.5930   89.5140 C.3   297  PHE297      0.1639
    117  C          5.0020   25.9050   90.6620 C.2   297  PHE297      0.2290
    118  O          5.7250   26.5200   91.4460 O.2   297  PHE297     -0.2864
    119  CB         5.1540   26.4390   88.2870 C.3   297  PHE297      0.0560
    120  CG         4.4350   25.9940   87.0140 C.ar  297  PHE297     -0.0200
    121  CD1        3.3580   26.6940   86.4950 C.ar  297  PHE297     -0.0042
    122  CD2        4.8430   24.8550   86.3400 C.ar  297  PHE297     -0.0042
    123  CE1        2.7210   26.2830   85.3390 C.ar  297  PHE297     -0.0003
    124  CE2        4.2110   24.4630   85.1640 C.ar  297  PHE297     -0.0003
    125  CZ         3.1460   25.1680   84.6490 C.ar  297  PHE297     -0.0000
    126  N          3.7810   26.4280   78.9530 N.3   326  LYS326     -0.1245
    127  CA         4.6270   26.5590   80.1150 C.3   326  LYS326      0.1561
    128  C          5.7110   25.4910   80.1020 C.2   326  LYS326      0.2260
    129  O          5.5910   24.4930   79.3810 O.2   326  LYS326     -0.2867
    130  CB         3.7890   26.4870   81.4040 C.3   326  LYS326      0.0271
    131  CG         2.8540   27.6540   81.6130 C.3   326  LYS326      0.0035
    132  CD         3.5230   28.8350   82.2790 C.3   326  LYS326      0.0206
    133  CE         2.6330   30.0530   82.2750 C.3   326  LYS326      0.1093
    134  NZ         3.2980   31.2180   82.8850 N.3   326  LYS326     -0.1314
    135  N         10.8720   24.7440   84.0030 N.3   329  HIS329     -0.1226
    136  CA        11.5530   25.8370   84.6930 C.3   329  HIS329      0.1752
    137  C         10.6810   26.9760   85.1660 C.2   329  HIS329      0.2596
    138  O         11.2310   27.9520   85.7200 O.2   329  HIS329     -0.2718
    139  CB        12.6450   26.4510   83.7750 C.3   329  HIS329      0.0759
    140  CG        13.8090   25.5220   83.6020 C.ar  329  HIS329      0.0818
    141  ND1       15.0060   25.9440   83.0430 N.ar  329  HIS329     -0.2268
    142  CD2       13.9690   24.2020   83.8620 C.ar  329  HIS329      0.1154
    143  CE1       15.8450   24.9170   82.9950 C.ar  329  HIS329      0.1986
    144  NE2       15.2620   23.8420   83.4910 N.ar  329  HIS329     -0.2212
    145  N          9.3610   26.9180   84.9940 N.am  330  GLU330     -0.1965
    146  CA         8.5080   28.0610   85.3250 C.3   330  GLU330      0.1733
    147  C          8.7230   28.6480   86.7000 C.2   330  GLU330      0.2616
    148  O          8.7510   29.8800   86.8530 O.2   330  GLU330     -0.2715
    149  CB         7.0390   27.6240   85.1370 C.3   330  GLU330      0.0429
    150  CG         6.0910   28.7730   85.4330 C.3   330  GLU330      0.1163
    151  CD         6.1430   29.9290   84.4430 C.2   330  GLU330      0.3649
    152  OE1        6.8660   29.9150   83.4280 O.co2 330  GLU330     -0.2457
    153  OE2        5.3970   30.9090   84.7320 O.co2 330  GLU330     -0.2457
    154  N          8.8960   27.8250   87.7410 N.am  331  ALA331     -0.1963
    155  CA         9.0130   28.3990   89.0900 C.3   331  ALA331      0.1728
    156  C         10.3430   29.1350   89.3180 C.2   331  ALA331      0.2616
    157  O         10.4460   29.9520   90.2600 O.2   331  ALA331     -0.2715
    158  CB         8.8730   27.3120   90.1510 C.3   331  ALA331      0.0334
    159  N         11.3260   28.8730   88.4890 N.am  332  ILE332     -0.1963
    160  CA        12.7130   29.2970   88.7500 C.3   332  ILE332      0.1727
    161  C         13.2120   30.4420   87.8800 C.2   332  ILE332      0.2617
    162  O         13.7520   31.4160   88.3890 O.2   332  ILE332     -0.2715
    163  CB        13.6730   28.1120   88.5590 C.3   332  ILE332      0.0290
    164  CG1       13.3830   26.9000   89.4500 C.3   332  ILE332      0.0022
    165  CG2       15.1280   28.5440   88.7910 C.3   332  ILE332      0.0023
    166  CD1       13.3480   27.2670   90.9060 C.3   332  ILE332      0.0001
    167  N         13.0830   30.3110   86.5680 N.am  333  GLY333     -0.1940
    168  CA        13.5940   31.3230   85.6720 C.3   333  GLY333      0.2014
    169  C         13.2490   31.0530   84.2020 C.2   333  GLY333      0.2639
    170  O         12.7480   29.9890   83.8570 O.2   333  GLY333     -0.2714
    171  N         13.5440   32.0670   83.3770 N.am  334  ILE334     -0.1963
    172  CA        13.2800   31.9350   81.9300 C.3   334  ILE334      0.1712
    173  C         13.9220   30.6510   81.4420 C.2   334  ILE334      0.2458
    174  O         15.1020   30.3910   81.7250 O.2   334  ILE334     -0.2730
    175  CB        13.7500   33.1570   81.1470 C.3   334  ILE334      0.0289
    176  CG1       12.7520   34.3090   81.3190 C.3   334  ILE334      0.0022
    177  CG2       13.9510   32.8930   79.6580 C.3   334  ILE334      0.0023
    178  CD1       13.4230   35.6460   81.1150 C.3   334  ILE334      0.0001
    179  N         13.1330   29.8110   80.7920 N.am  335  PRO335     -0.2727
    180  CA        13.6370   28.5020   80.3860 C.3   335  PRO335      0.1402
    181  C         14.7760   28.5920   79.3800 C.2   335  PRO335      0.2269
    182  O         14.8510   29.4480   78.5060 O.2   335  PRO335     -0.2865
    183  CB        12.4200   27.8090   79.7420 C.3   335  PRO335      0.0296
    184  CG        11.5410   28.9530   79.3290 C.3   335  PRO335      0.0237
    185  CD        11.7240   29.9890   80.4150 C.3   335  PRO335      0.0939
    186  N         -5.6020   41.7320   92.0150 N.3   408  PHE408     -0.1241
    187  CA        -4.1740   41.9510   92.2270 C.3   408  PHE408      0.1605
    188  C         -3.5750   42.9010   91.1980 C.2   408  PHE408      0.2264
    189  O         -2.3360   43.0370   91.1630 O.2   408  PHE408     -0.2867
    190  CB        -3.3860   40.6240   92.2450 C.3   408  PHE408      0.0534
    191  CG        -4.0280   39.6490   93.2420 C.ar  408  PHE408     -0.0203
    192  CD1       -3.8210   39.8220   94.5920 C.ar  408  PHE408     -0.0042
    193  CD2       -4.8260   38.6220   92.7570 C.ar  408  PHE408     -0.0042
    194  CE1       -4.4410   38.9380   95.4750 C.ar  408  PHE408     -0.0003
    195  CE2       -5.4520   37.7530   93.6290 C.ar  408  PHE408     -0.0003
    196  CZ        -5.2420   37.9320   94.9840 C.ar  408  PHE408     -0.0000
    197  N         -1.7710   45.8530   89.6430 N.3   410  PRO410     -0.2116
    198  CA        -0.9550   46.9510   90.2150 C.3   410  PRO410      0.1372
    199  C         -1.4420   48.3590   89.8590 C.2   410  PRO410      0.2244
    200  O         -1.0790   49.3600   90.4990 O.2   410  PRO410     -0.2868
    201  CB         0.4230   46.7430   89.6010 C.3   410  PRO410      0.0268
    202  CG         0.2190   45.9340   88.3640 C.3   410  PRO410      0.0207
    203  CD        -0.9890   45.0730   88.6540 C.3   410  PRO410      0.0892
    204  N         -3.4630   30.9520   96.3750 N.3   470  ILE470     -0.1231
    205  CA        -2.3240   31.5160   95.6590 C.3   470  ILE470      0.1692
    206  C         -1.1360   30.5650   95.7060 C.2   470  ILE470      0.2592
    207  O         -0.3880   30.4160   94.7250 O.2   470  ILE470     -0.2718
    208  CB        -2.0100   32.9230   96.2210 C.3   470  ILE470      0.0266
    209  CG1       -3.0740   33.9440   95.7780 C.3   470  ILE470      0.0019
    210  CG2       -0.6510   33.4130   95.8210 C.3   470  ILE470      0.0020
    211  CD1       -3.0940   35.2550   96.5220 C.3   470  ILE470      0.0001
    212  N         -0.9070   29.8890   96.8190 N.am  471  PHE471     -0.1976
    213  CA         0.2370   29.0280   96.9890 C.3   471  PHE471      0.1639
    214  C         -0.0010   27.5750   96.6210 C.2   471  PHE471      0.2290
    215  O          0.9710   26.8190   96.5320 O.2   471  PHE471     -0.2864
    216  CB         0.6820   29.0190   98.4680 C.3   471  PHE471      0.0560
    217  CG         1.4240   30.3220   98.7720 C.ar  471  PHE471     -0.0200
    218  CD1        2.7590   30.4500   98.4360 C.ar  471  PHE471     -0.0042
    219  CD2        0.7980   31.3810   99.3820 C.ar  471  PHE471     -0.0042
    220  CE1        3.4370   31.6280   98.6880 C.ar  471  PHE471     -0.0003
    221  CE2        1.4490   32.5700   99.6610 C.ar  471  PHE471     -0.0003
    222  CZ         2.7820   32.6840   99.2960 C.ar  471  PHE471     -0.0000
@<TRIPOS>BOND
     1    12    13    1
     2    13    14    1
     3    13    16    1
     4    15    14    2
     5     1     2    1
     6    17    16    1
     7     3     2    1
     8     3     4    2
     9     2     5    1
    10    16    18    1
    11    62    63    1
    12     5     6    1
    13    63    66    1
    14    63    64    1
    15     6     7    1
    16    66    67    1
    17    24    25    1
    18    25    26    1
    19    25    28    1
    20    64    65    2
    21    29    28    1
    22    29    30    1
    23    34    32    1
    24     8     7    1
    25     8     9    2
    26    68    67   ar
    27    68    70   ar
    28    31    32    2
    29    31    30    1
    30    27    26    2
    31    67    69   ar
    32    11     9    1
    33   182   181    2
    34     9    10    1
    35    32    33    1
    36    38    37    2
    37    37    36    1
    38   126   127    1
    39    70    72   ar
    40   184   183    1
    41   184   185    1
    42    19    20    1
    43   181   180    1
    44   129   128    2
    45    69    71   ar
    46   177   175    1
    47   183   180    1
    48    35    36    1
    49    36    39    1
    50    21    20    1
    51    21    22    2
    52   128   127    1
    53   127   130    1
    54    20    23    1
    55    41    40    2
    56    61    60    1
    57   180   179    1
    58   185   179    1
    59    72    71   ar
    60    59    60   ar
    61    59    57   ar
    62   179   173   am
    63    60    58   ar
    64   178   176    1
    65   175   176    1
    66   175   172    1
    67    57    55   ar
    68    40    39    1
    69    40    42   am
    70   130   131    1
    71    58    56   ar
    72   173   174    2
    73   173   172    1
    74   106   105    1
    75   105   104    1
    76   131   132    1
    77    80    78    1
    78    55    56   ar
    79    55    54    1
    80   172   171    1
    81    73    74    1
    82   133   132    1
    83   133   134    1
    84    54    51    1
    85   104   103    1
    86    78    79    1
    87    78    77    1
    88   143   141   ar
    89   143   144   ar
    90   141   140   ar
    91    74    77    1
    92    74    75    1
    93    49    48    1
    94    49    43    1
    95    48    47    1
    96   171   169   am
    97   152   151   ar
    98   144   142   ar
    99   140   139    1
   100   140   142   ar
   101    76    75    2
   102   139   136    1
   103   170   169    2
   104    51    50    1
   105    51    52    1
   106   135   136    1
   107   103   100    1
   108    47    44    1
   109    75    81   am
   110    53    52    2
   111   169   168    1
   112    50    45   am
   113    43    44    1
   114   151   153   ar
   115   151   150    1
   116   125   124   ar
   117   125   123   ar
   118   136   137    1
   119    99   100    1
   120   100   101    1
   121   145   137   am
   122   145   146    1
   123    45    44    1
   124    45    46    2
   125   149   146    1
   126   149   150    1
   127   124   122   ar
   128   137   138    2
   129   146   147    1
   130   123   121   ar
   131    81    82    1
   132   168   167    1
   133    88    89    1
   134    88    83   am
   135    89    90    1
   136   101   102    2
   137   101   107   am
   138   122   120   ar
   139    82    83    1
   140    82    85    1
   141   121   120   ar
   142   167   161   am
   143   147   148    2
   144   147   154   am
   145    83    84    2
   146   120   119    1
   147   107   108    1
   148    90    91    2
   149    90    92   am
   150    87    85    1
   151   154   155    1
   152    85    86    1
   153   161   162    2
   154   161   160    1
   155   110   109    2
   156   119   116    1
   157    92    93    1
   158   202   203    1
   159   202   201    1
   160   159   160    1
   161   159   156   am
   162   163   160    1
   163   163   165    1
   164   163   164    1
   165   108   109    1
   166   203   197    1
   167   109   111   am
   168   155   156    1
   169   155   158    1
   170   156   157    2
   171   164   166    1
   172   116   115    1
   173   116   117    1
   174   201   198    1
   175   197   198    1
   176    93    94    1
   177    93    96    1
   178   115   113   am
   179   199   198    1
   180   199   200    2
   181    94    95    2
   182    97    96    1
   183   111   112    1
   184   113   114    2
   185   113   112    1
   186    96    98    1
   187   117   118    2
   188   189   188    2
   189   188   187    1
   190   186   187    1
   191   187   190    1
   192   190   191    1
   193   193   191   ar
   194   193   195   ar
   195   191   192   ar
   196   195   196   ar
   197   192   194   ar
   198   207   206    2
   199   196   194   ar
   200   205   206    1
   201   205   208    1
   202   205   204    1
   203   206   212   am
   204   209   208    1
   205   209   211    1
   206   210   208    1
   207   215   214    2
   208   214   213    1
   209   212   213    1
   210   213   216    1
   211   218   220   ar
   212   218   217   ar
   213   216   217    1
   214   220   222   ar
   215   217   219   ar
   216   222   221   ar
   217   219   221   ar
