@<TRIPOS>MOLECULE
tmp/1cdeC00.pdb
 155 150 0 0 0
SMALL
GASTEIGER

@<TRIPOS>ATOM
      1  N         85.6900    5.3320   39.3850 N.3     7  ILE7       -0.1245
      2  CA        85.5040    6.6500   39.9440 C.3     7  ILE7        0.1561
      3  C         86.5260    7.7030   39.4970 C.2     7  ILE7        0.2260
      4  O         87.6260    7.3990   39.0080 O.2     7  ILE7       -0.2867
      5  CB        85.5640    6.6020   41.4620 C.3     7  ILE7        0.0252
      6  CG1       86.9910    6.2830   41.8750 C.3     7  ILE7        0.0019
      7  CG2       84.5370    5.6200   41.9840 C.3     7  ILE7        0.0019
      8  CD1       87.3330    6.5400   43.3400 C.3     7  ILE7        0.0001
      9  N         86.6290   10.6510   41.7640 N.3     9  GLY9       -0.1210
     10  CA        86.6600   11.5910   42.8740 C.3     9  GLY9        0.1956
     11  C         86.2090   11.1550   44.2660 C.2     9  GLY9        0.2612
     12  O         86.8080   10.2530   44.8490 O.2     9  GLY9       -0.2717
     13  N         85.1500   11.7310   44.8560 N.am   10  ASN10      -0.1960
     14  CA        84.9280   11.5390   46.2960 C.3    10  ASN10       0.1819
     15  C         84.5180   10.1550   46.7520 C.2    10  ASN10       0.2622
     16  O         84.8980    9.7140   47.8110 O.2    10  ASN10      -0.2715
     17  CB        83.8960   12.5390   46.7640 C.3    10  ASN10       0.1195
     18  CG        83.7460   12.5330   48.2770 C.2    10  ASN10       0.2630
     19  OD1       82.7440   12.0670   48.8070 O.2    10  ASN10      -0.2716
     20  ND2       84.6770   12.9900   49.0870 N.am   10  ASN10      -0.0877
     21  N         83.7440    9.4790   45.9200 N.am   11  GLY11      -0.1940
     22  CA        83.3140    8.1240   46.1860 C.3    11  GLY11       0.2014
     23  C         82.1190    7.9310   47.1040 C.2    11  GLY11       0.2640
     24  O         81.9610    6.8590   47.6810 O.2    11  GLY11      -0.2714
     25  N         81.1950    8.8840   47.1970 N.am   12  SER12      -0.1935
     26  CA        80.0170    8.6770   48.0210 C.3    12  SER12       0.2055
     27  C         79.0300    7.6900   47.3850 C.2    12  SER12       0.2643
     28  O         78.4010    6.8900   48.0870 O.2    12  SER12      -0.2714
     29  CB        79.3320   10.0150   48.3030 C.3    12  SER12       0.2130
     30  OG        78.5520   10.3990   47.1970 O.3    12  SER12      -0.2179
     31  N         78.8270    7.6640   46.0700 N.am   13  ASN13      -0.1957
     32  CA        78.0130    6.6210   45.4300 C.3    13  ASN13       0.1819
     33  C         78.6180    5.1970   45.5280 C.2    13  ASN13       0.2621
     34  O         77.9040    4.2110   45.7440 O.2    13  ASN13      -0.2715
     35  CB        77.8210    6.9900   43.9880 C.3    13  ASN13       0.1195
     36  CG        76.6720    7.9340   43.7810 C.2    13  ASN13       0.2630
     37  OD1       76.7560    9.1370   43.8640 O.2    13  ASN13      -0.2716
     38  ND2       75.4910    7.4980   43.5110 N.am   13  ASN13      -0.0877
     39  N         79.9420    5.0880   45.3690 N.am   14  LEU14      -0.1977
     40  CA        80.7490    3.8880   45.6060 C.3    14  LEU14       0.1596
     41  C         80.4650    3.3830   47.0330 C.2    14  LEU14       0.2287
     42  O         80.1160    2.2190   47.2570 O.2    14  LEU14      -0.2864
     43  CB        82.2520    4.2300   45.5010 C.3    14  LEU14       0.0297
     44  CG        83.4610    3.2840   45.3850 C.3    14  LEU14       0.0022
     45  CD1       84.4680    3.6660   46.4550 C.3    14  LEU14       0.0001
     46  CD2       83.0480    1.8370   45.4780 C.3    14  LEU14       0.0001
     47  N         80.6230    5.5550   38.4630 N.3    86  ALA86      -0.1231
     48  CA        80.0880    6.3160   39.5530 C.3    86  ALA86       0.1694
     49  C         80.9930    7.4920   39.8310 C.2    86  ALA86       0.2593
     50  O         81.7940    7.5560   40.7640 O.2    86  ALA86      -0.2718
     51  CB        79.9800    5.4160   40.7990 C.3    86  ALA86       0.0304
     52  N         80.7580    8.5320   39.0190 N.am   87  GLY87      -0.1942
     53  CA        81.5830    9.7560   39.0250 C.3    87  GLY87       0.2014
     54  C         82.7950    9.7020   38.0930 C.2    87  GLY87       0.2639
     55  O         83.7630   10.4100   38.3370 O.2    87  GLY87      -0.2714
     56  N         82.7780    8.9230   37.0010 N.am   88  PHE88      -0.1959
     57  CA        83.9710    8.7590   36.2080 C.3    88  PHE88       0.1771
     58  C         84.0280    9.8330   35.1400 C.2    88  PHE88       0.2619
     59  O         83.1990    9.8320   34.2400 O.2    88  PHE88      -0.2715
     60  CB        83.9380    7.3540   35.5990 C.3    88  PHE88       0.0574
     61  CG        85.2290    6.9060   34.9200 C.ar   88  PHE88      -0.0200
     62  CD1       86.4060    6.7950   35.6510 C.ar   88  PHE88      -0.0042
     63  CD2       85.2220    6.6390   33.5560 C.ar   88  PHE88      -0.0042
     64  CE1       87.5570    6.4350   34.9980 C.ar   88  PHE88      -0.0003
     65  CE2       86.3870    6.2720   32.9050 C.ar   88  PHE88      -0.0003
     66  CZ        87.5430    6.1810   33.6390 C.ar   88  PHE88      -0.0000
     67  N         84.9390   10.7820   35.2300 N.am   89  MET89      -0.1977
     68  CA        85.0030   11.8530   34.2700 C.3    89  MET89       0.1605
     69  C         85.7320   11.6520   32.9180 C.2    89  MET89       0.2287
     70  O         86.6780   12.3510   32.5700 O.2    89  MET89      -0.2864
     71  CB        85.5700   13.0210   35.0480 C.3    89  MET89       0.0413
     72  CG        84.6550   13.6130   36.1510 C.3    89  MET89       0.0598
     73  SD        82.9040   13.8200   35.7020 S.3    89  MET89      -0.1393
     74  CE        82.4210   14.0110   37.3920 C.3    89  MET89       0.0692
     75  N         75.6530    3.8670   34.2450 N.3   106  ASN106     -0.1225
     76  CA        76.1150    5.1590   34.7270 C.3   106  ASN106      0.1785
     77  C         75.0070    5.9540   35.4380 C.2   106  ASN106      0.2597
     78  O         73.8010    5.8270   35.1340 O.2   106  ASN106     -0.2718
     79  CB        76.6600    5.9580   33.5450 C.3   106  ASN106      0.1169
     80  CG        77.2230    7.3540   33.8640 C.2   106  ASN106      0.2627
     81  OD1       78.1770    7.6280   34.6110 O.2   106  ASN106     -0.2716
     82  ND2       76.5790    8.3660   33.2930 N.am  106  ASN106     -0.0877
     83  N         75.4210    6.7980   36.3750 N.am  107  ILE107     -0.1966
     84  CA        74.5160    7.7230   36.9790 C.3   107  ILE107      0.1727
     85  C         74.8700    9.1530   36.5600 C.2   107  ILE107      0.2616
     86  O         75.9850    9.6700   36.7150 O.2   107  ILE107     -0.2715
     87  CB        74.5670    7.5020   38.4970 C.3   107  ILE107      0.0290
     88  CG1       73.4330    8.3290   39.0490 C.3   107  ILE107      0.0022
     89  CG2       75.8030    7.9510   39.1800 C.3   107  ILE107      0.0023
     90  CD1       72.7290    7.7300   40.2850 C.3   107  ILE107      0.0001
     91  N         73.9050    9.8130   35.9300 N.am  108  HIS108     -0.1960
     92  CA        74.0320   11.2000   35.4440 C.3   108  HIS108      0.1772
     93  C         73.1390   12.2100   36.2190 C.2   108  HIS108      0.2462
     94  O         71.9180   12.0000   36.2990 O.2   108  HIS108     -0.2730
     95  CB        73.6850   11.2370   33.9090 C.3   108  HIS108      0.0785
     96  CG        73.9040   12.6160   33.2800 C.ar  108  HIS108      0.0821
     97  ND1       73.0270   13.3700   32.6250 N.ar  108  HIS108     -0.2267
     98  CD2       75.0590   13.3660   33.4170 C.ar  108  HIS108      0.1154
     99  CE1       73.5660   14.5140   32.3790 C.ar  108  HIS108      0.1986
    100  NE2       74.7800   14.4950   32.8580 N.ar  108  HIS108     -0.2212
    101  N         73.6090   13.3330   36.7760 N.am  109  PRO109     -0.2727
    102  CA        72.8050   14.1990   37.6360 C.3   109  PRO109      0.1402
    103  C         71.8640   15.1900   36.9640 C.2   109  PRO109      0.2269
    104  O         71.9760   16.4200   37.0520 O.2   109  PRO109     -0.2865
    105  CB        73.8420   14.8320   38.5210 C.3   109  PRO109      0.0296
    106  CG        75.0810   14.9340   37.6510 C.3   109  PRO109      0.0237
    107  CD        74.9860   13.7660   36.7130 C.3   109  PRO109      0.0939
    108  N         75.1630   16.9340   29.7660 N.3   117  GLY117     -0.1210
    109  CA        76.6010   17.1230   29.7590 C.3   117  GLY117      0.1956
    110  C         77.1110   17.4250   31.1260 C.2   117  GLY117      0.2611
    111  O         76.6980   16.7950   32.0940 O.2   117  GLY117     -0.2717
    112  N         78.0320   18.3540   31.2680 N.am  118  LEU118     -0.1979
    113  CA        78.5680   18.7180   32.5730 C.3   118  LEU118      0.1596
    114  C         77.8660   19.9760   33.0620 C.2   118  LEU118      0.2287
    115  O         77.1450   20.6330   32.3120 O.2   118  LEU118     -0.2864
    116  CB        80.1000   18.9680   32.4940 C.3   118  LEU118      0.0297
    117  CG        81.0570   17.7880   32.1480 C.3   118  LEU118      0.0022
    118  CD1       81.4390   17.8450   30.6660 C.3   118  LEU118      0.0001
    119  CD2       82.3140   17.8650   33.0170 C.3   118  LEU118      0.0001
    120  N         73.6720   20.9360   37.3810 N.3   121  HIS121     -0.1241
    121  CA        73.0490   21.6420   38.5090 C.3   121  HIS121      0.1621
    122  C         72.9500   23.1500   38.2600 C.2   121  HIS121      0.2264
    123  O         71.8610   23.7320   38.3410 O.2   121  HIS121     -0.2867
    124  CB        73.8240   21.3760   39.7950 C.3   121  HIS121      0.0745
    125  CG        73.8820   19.8790   40.1520 C.ar  121  HIS121      0.0817
    126  ND1       72.9980   18.8720   40.0400 N.ar  121  HIS121     -0.2268
    127  CD2       74.9910   19.3250   40.7480 C.ar  121  HIS121      0.1154
    128  CE1       73.5100   17.7810   40.5370 C.ar  121  HIS121      0.1986
    129  NE2       74.7100   18.0700   40.9560 N.ar  121  HIS121     -0.2212
    130  N         75.9400   10.5520   27.4280 N.3   144  ASP144     -0.1239
    131  CA        74.7750   10.5910   28.3040 C.3   144  ASP144      0.1674
    132  C         73.4120   10.2840   27.7070 C.2   144  ASP144      0.2266
    133  O         72.4000   10.5950   28.3310 O.2   144  ASP144     -0.2867
    134  CB        74.6750   11.9170   28.9920 C.3   144  ASP144      0.1410
    135  CG        75.8360   12.0280   29.9360 C.2   144  ASP144      0.3668
    136  OD1       76.1640   11.0740   30.6530 O.co2 144  ASP144     -0.2456
    137  OD2       76.4440   13.0860   29.9420 O.co2 144  ASP144     -0.2456
    138  N         72.4270   14.1850   45.3910 N.3   170  GLN170     -0.1245
    139  CA        73.2680   13.0790   45.8080 C.3   170  GLN170      0.1566
    140  C         72.5790   12.1090   46.7460 C.2   170  GLN170      0.2260
    141  O         72.7170   10.8890   46.5980 O.2   170  GLN170     -0.2867
    142  CB        74.5060   13.5660   46.4700 C.3   170  GLN170      0.0367
    143  CG        75.4250   13.6430   45.3040 C.3   170  GLN170      0.0905
    144  CD        76.9010   13.8380   45.6330 C.2   170  GLN170      0.2608
    145  OE1       77.3310   14.1670   46.7400 O.2   170  GLN170     -0.2717
    146  NE2       77.7680   13.6010   44.6710 N.am  170  GLN170     -0.0878
    147  N         70.7060    9.7290   44.7130 N.3   173  GLU173     -0.1245
    148  CA        71.6150    8.8150   44.0140 C.3   173  GLU173      0.1567
    149  C         71.9820    7.6310   44.9040 C.2   173  GLU173      0.2260
    150  O         71.8570    6.4720   44.5590 O.2   173  GLU173     -0.2867
    151  CB        72.8860    9.5270   43.6430 C.3   173  GLU173      0.0388
    152  CG        72.6840   10.7360   42.7480 C.3   173  GLU173      0.1160
    153  CD        73.9340   11.3120   42.1080 C.2   173  GLU173      0.3649
    154  OE1       74.9910   11.3860   42.7580 O.co2 173  GLU173     -0.2457
    155  OE2       73.7970   11.6890   40.9430 O.co2 173  GLU173     -0.2457
@<TRIPOS>BOND
     1   130   131    1
     2   132   131    1
     3   132   133    2
     4   131   134    1
     5   134   135    1
     6   109   108    1
     7   109   110    1
     8   135   137   ar
     9   135   136   ar
    10   118   117    1
    11   110   112   am
    12   110   111    2
    13   112   113    1
    14   117   116    1
    15   117   119    1
    16   115   114    2
    17    99    97   ar
    18    99   100   ar
    19   116   113    1
    20    70    69    2
    21   113   114    1
    22    97    96   ar
    23   100    98   ar
    24    65    63   ar
    25    65    66   ar
    26    69    68    1
    27    96    98   ar
    28    96    95    1
    29    82    80   am
    30    79    80    1
    31    79    76    1
    32    63    61   ar
    33    66    64   ar
    34    80    81    2
    35    95    92    1
    36    59    58    2
    37    75    76    1
    38    68    71    1
    39    68    67    1
    40    76    77    1
    41    61    60    1
    42    61    62   ar
    43    64    62   ar
    44    71    72    1
    45    78    77    2
    46    58    67   am
    47    58    57    1
    48    77    83   am
    49    92    91    1
    50    92    93    1
    51    60    57    1
    52    73    72    1
    53    73    74    1
    54    91    85   am
    55    57    56    1
    56    93    94    2
    57    93   101   am
    58    83    84    1
    59    85    86    2
    60    85    84    1
    61   107   101    1
    62   107   106    1
    63   101   102    1
    64   103   104    2
    65   103   102    1
    66    84    87    1
    67    56    54   am
    68   120   121    1
    69   102   105    1
    70   106   105    1
    71    54    55    2
    72    54    53    1
    73   122   123    2
    74   122   121    1
    75    47    48    1
    76    87    88    1
    77    87    89    1
    78   121   124    1
    79     4     3    2
    80    52    53    1
    81    52    49   am
    82    88    90    1
    83     1     2    1
    84     3     2    1
    85    48    49    1
    86    48    51    1
    87   124   125    1
    88    49    50    2
    89     2     5    1
    90   126   125   ar
    91   126   128   ar
    92   125   127   ar
    93   128   129   ar
    94   127   129   ar
    95   155   153   ar
    96     5     6    1
    97     5     7    1
    98     9    10    1
    99     6     8    1
   100   153   152    1
   101   153   154   ar
   102   152   151    1
   103    10    11    1
   104    38    36   am
   105   151   148    1
   106    36    37    2
   107    36    35    1
   108    35    32    1
   109   148   147    1
   110   148   149    1
   111    11    12    2
   112    11    13   am
   113   150   149    2
   114   146   144   am
   115    13    14    1
   116   143   144    1
   117   143   142    1
   118    39    33   am
   119    39    40    1
   120    44    46    1
   121    44    43    1
   122    44    45    1
   123   138   139    1
   124    32    33    1
   125    32    31    1
   126    43    40    1
   127    33    34    2
   128    40    41    1
   129   144   145    2
   130   139   142    1
   131   139   140    1
   132    21    22    1
   133    21    15   am
   134    31    27   am
   135    22    23    1
   136    14    15    1
   137    14    17    1
   138   141   140    2
   139    15    16    2
   140    17    18    1
   141    41    42    2
   142    23    25   am
   143    23    24    2
   144    30    29    1
   145    25    26    1
   146    27    26    1
   147    27    28    2
   148    26    29    1
   149    18    19    2
   150    18    20   am
