@<TRIPOS>MOLECULE
tmp/1cdeC01.pdb
 159 153 0 0 0
SMALL
GASTEIGER

@<TRIPOS>ATOM
      1  N         93.4820    7.9130   23.0570 N.3    64  ARG64      -0.1245
      2  CA        92.2830    7.5410   23.8120 C.3    64  ARG64       0.1563
      3  C         91.9820    6.0360   23.7780 C.2    64  ARG64       0.2260
      4  O         91.7840    5.3320   24.7550 O.2    64  ARG64      -0.2867
      5  CB        91.0800    8.3350   23.2690 C.3    64  ARG64       0.0307
      6  CG        89.7690    7.8020   23.8350 C.3    64  ARG64       0.0489
      7  CD        89.0620    8.6300   24.9090 C.3    64  ARG64       0.2205
      8  NE        88.2950    9.7530   24.3890 N.pl3  64  ARG64      -0.0865
      9  CZ        87.4100    9.6470   23.3650 C.cat  64  ARG64       0.5346
     10  NH1       87.1710    8.5490   22.6200 N.pl3  64  ARG64       0.1354
     11  NH2       86.7240   10.7300   23.0190 N.pl3  64  ARG64       0.1354
     12  N         80.0310    2.8760   36.2970 N.3    85  LEU85      -0.1245
     13  CA        80.5240    4.2470   36.3570 C.3    85  LEU85       0.1561
     14  C         79.8450    5.0670   37.5140 C.2    85  LEU85       0.2260
     15  O         78.6230    5.1910   37.6860 O.2    85  LEU85      -0.2867
     16  CB        80.2860    4.8230   34.9160 C.3    85  LEU85       0.0270
     17  CG        81.2740    4.6130   33.7590 C.3    85  LEU85       0.0019
     18  CD1       81.8910    3.2550   33.7020 C.3    85  LEU85       0.0001
     19  CD2       80.4850    4.7070   32.4970 C.3    85  LEU85       0.0001
     20  N         82.7780    8.9230   37.0010 N.3    88  PHE88      -0.1227
     21  CA        83.9710    8.7590   36.2080 C.3    88  PHE88       0.1736
     22  C         84.0280    9.8330   35.1400 C.2    88  PHE88       0.2595
     23  O         83.1990    9.8320   34.2400 O.2    88  PHE88      -0.2718
     24  CB        83.9380    7.3540   35.5990 C.3    88  PHE88       0.0547
     25  CG        85.2290    6.9060   34.9200 C.ar   88  PHE88      -0.0202
     26  CD1       86.4060    6.7950   35.6510 C.ar   88  PHE88      -0.0042
     27  CD2       85.2220    6.6390   33.5560 C.ar   88  PHE88      -0.0042
     28  CE1       87.5570    6.4350   34.9980 C.ar   88  PHE88      -0.0003
     29  CE2       86.3870    6.2720   32.9050 C.ar   88  PHE88      -0.0003
     30  CZ        87.5430    6.1810   33.6390 C.ar   88  PHE88      -0.0000
     31  N         84.9390   10.7820   35.2300 N.am   89  MET89      -0.1965
     32  CA        85.0030   11.8530   34.2700 C.3    89  MET89       0.1736
     33  C         85.7320   11.6520   32.9180 C.2    89  MET89       0.2616
     34  O         86.6780   12.3510   32.5700 O.2    89  MET89      -0.2715
     35  CB        85.5700   13.0210   35.0480 C.3    89  MET89       0.0427
     36  CG        84.6550   13.6130   36.1510 C.3    89  MET89       0.0599
     37  SD        82.9040   13.8200   35.7020 S.3    89  MET89      -0.1393
     38  CE        82.4210   14.0110   37.3920 C.3    89  MET89       0.0692
     39  N         85.3520   10.7310   32.0440 N.am   90  ARG90      -0.1963
     40  CA        86.0030   10.5290   30.7790 C.3    90  ARG90       0.1729
     41  C         85.0750    9.9580   29.7590 C.2    90  ARG90       0.2616
     42  O         84.2950    9.0650   30.0400 O.2    90  ARG90      -0.2715
     43  CB        87.1700    9.5260   30.7820 C.3    90  ARG90       0.0348
     44  CG        88.3930    9.9060   31.5920 C.3    90  ARG90       0.0492
     45  CD        89.5830    8.9770   31.4160 C.3    90  ARG90       0.2205
     46  NE        90.4040    9.2120   30.2350 N.pl3  90  ARG90      -0.0865
     47  CZ        90.1800    8.5700   29.0790 C.cat  90  ARG90       0.5346
     48  NH1       89.1230    7.7130   28.8840 N.pl3  90  ARG90       0.1354
     49  NH2       91.0630    8.8370   28.1120 N.pl3  90  ARG90       0.1354
     50  N         85.1090   10.3570   28.5200 N.am   91  ILE91      -0.1963
     51  CA        84.2950    9.7220   27.5340 C.3    91  ILE91       0.1727
     52  C         85.0020    8.4100   27.2380 C.2    91  ILE91       0.2616
     53  O         86.2260    8.3030   27.2160 O.2    91  ILE91      -0.2715
     54  CB        84.2210   10.6390   26.3280 C.3    91  ILE91       0.0290
     55  CG1       83.5550   11.9510   26.7650 C.3    91  ILE91       0.0022
     56  CG2       83.4210    9.9840   25.1960 C.3    91  ILE91       0.0023
     57  CD1       84.0420   13.1750   25.9570 C.3    91  ILE91       0.0001
     58  N         84.2140    7.3490   27.1860 N.am   92  LEU92      -0.1977
     59  CA        84.7560    6.0500   26.8680 C.3    92  LEU92       0.1596
     60  C         84.5010    5.8290   25.4060 C.2    92  LEU92       0.2287
     61  O         83.4780    6.1770   24.8210 O.2    92  LEU92      -0.2864
     62  CB        84.0930    4.9360   27.6970 C.3    92  LEU92       0.0297
     63  CG        84.2130    5.1450   29.2080 C.3    92  LEU92       0.0022
     64  CD1       83.1320    4.3610   29.8800 C.3    92  LEU92       0.0001
     65  CD2       85.5970    4.7860   29.6910 C.3    92  LEU92       0.0001
     66  N         82.8590    0.7460   25.2240 N.3    97  VAL97      -0.1245
     67  CA        81.4100    0.6490   25.3110 C.3    97  VAL97       0.1561
     68  C         80.9880   -0.6010   24.5950 C.2    97  VAL97       0.2260
     69  O         80.2190   -1.3920   25.0960 O.2    97  VAL97      -0.2867
     70  CB        80.8200    1.8830   24.6810 C.3    97  VAL97       0.0252
     71  CG1       79.3400    1.7760   24.5870 C.3    97  VAL97       0.0019
     72  CG2       81.2130    3.0860   25.5320 C.3    97  VAL97       0.0019
     73  N         75.6530    3.8670   34.2450 N.3   106  ASN106     -0.1240
     74  CA        76.1150    5.1590   34.7270 C.3   106  ASN106      0.1653
     75  C         75.0070    5.9540   35.4380 C.2   106  ASN106      0.2266
     76  O         73.8010    5.8270   35.1340 O.2   106  ASN106     -0.2867
     77  CB        76.6600    5.9580   33.5450 C.3   106  ASN106      0.1155
     78  CG        77.2230    7.3540   33.8640 C.2   106  ASN106      0.2627
     79  OD1       78.1770    7.6280   34.6110 O.2   106  ASN106     -0.2716
     80  ND2       76.5790    8.3660   33.2930 N.am  106  ASN106     -0.0877
     81  N         73.9050    9.8130   35.9300 N.3   108  HIS108     -0.1241
     82  CA        74.0320   11.2000   35.4440 C.3   108  HIS108      0.1621
     83  C         73.1390   12.2100   36.2190 C.2   108  HIS108      0.2264
     84  O         71.9180   12.0000   36.2990 O.2   108  HIS108     -0.2867
     85  CB        73.6850   11.2370   33.9090 C.3   108  HIS108      0.0745
     86  CG        73.9040   12.6160   33.2800 C.ar  108  HIS108      0.0817
     87  ND1       73.0270   13.3700   32.6250 N.ar  108  HIS108     -0.2268
     88  CD2       75.0590   13.3660   33.4170 C.ar  108  HIS108      0.1154
     89  CE1       73.5660   14.5140   32.3790 C.ar  108  HIS108      0.1986
     90  NE2       74.7800   14.4950   32.8580 N.ar  108  HIS108     -0.2212
     91  N         75.1630   16.9340   29.7660 N.3   117  GLY117     -0.1210
     92  CA        76.6010   17.1230   29.7590 C.3   117  GLY117      0.1956
     93  C         77.1110   17.4250   31.1260 C.2   117  GLY117      0.2611
     94  O         76.6980   16.7950   32.0940 O.2   117  GLY117     -0.2717
     95  N         78.0320   18.3540   31.2680 N.am  118  LEU118     -0.1979
     96  CA        78.5680   18.7180   32.5730 C.3   118  LEU118      0.1596
     97  C         77.8660   19.9760   33.0620 C.2   118  LEU118      0.2287
     98  O         77.1450   20.6330   32.3120 O.2   118  LEU118     -0.2864
     99  CB        80.1000   18.9680   32.4940 C.3   118  LEU118      0.0297
    100  CG        81.0570   17.7880   32.1480 C.3   118  LEU118      0.0022
    101  CD1       81.4390   17.8450   30.6660 C.3   118  LEU118      0.0001
    102  CD2       82.3140   17.8650   33.0170 C.3   118  LEU118      0.0001
    103  N         71.2710    5.1800   33.8790 N.3   137  HIS137     -0.1241
    104  CA        71.0380    4.6820   32.5170 C.3   137  HIS137      0.1621
    105  C         72.0820    3.6700   32.0480 C.2   137  HIS137      0.2264
    106  O         73.1770    3.6110   32.6150 O.2   137  HIS137     -0.2867
    107  CB        71.0160    5.8550   31.5570 C.3   137  HIS137      0.0745
    108  CG        72.3330    6.5720   31.2790 C.ar  137  HIS137      0.0817
    109  ND1       73.0690    6.4030   30.1840 N.ar  137  HIS137     -0.2268
    110  CD2       72.9850    7.5110   32.0560 C.ar  137  HIS137      0.1154
    111  CE1       74.1180    7.1910   30.2630 C.ar  137  HIS137      0.1986
    112  NE2       74.0800    7.8630   31.3850 N.ar  137  HIS137     -0.2212
    113  N         74.9750    2.7600   29.5620 N.3   139  VAL139     -0.1231
    114  CA        75.8900    3.5540   28.7350 C.3   139  VAL139      0.1692
    115  C         75.9540    3.0400   27.3090 C.2   139  VAL139      0.2593
    116  O         75.9610    1.8630   27.0030 O.2   139  VAL139     -0.2718
    117  CB        77.3020    3.5710   29.3250 C.3   139  VAL139      0.0266
    118  CG1       78.2140    4.3410   28.4030 C.3   139  VAL139      0.0020
    119  CG2       77.3780    4.4020   30.5970 C.3   139  VAL139      0.0020
    120  N         75.8890    3.9790   26.3820 N.am  140  THR140     -0.1939
    121  CA        75.9130    3.7040   24.9500 C.3   140  THR140      0.2028
    122  C         76.9280    4.6560   24.3090 C.2   140  THR140      0.2642
    123  O         77.5580    5.4980   24.9900 O.2   140  THR140     -0.2714
    124  CB        74.3920    3.8530   24.5930 C.3   140  THR140      0.1808
    125  OG1       73.9100    2.5150   24.6040 O.3   140  THR140     -0.2208
    126  CG2       74.0340    4.4950   23.2870 C.3   140  THR140      0.0379
    127  N         77.2200    4.5300   23.0180 N.am  141  ASP141     -0.1957
    128  CA        78.1650    5.4370   22.3500 C.3   141  ASP141      0.1840
    129  C         77.8760    6.9180   22.5220 C.2   141  ASP141      0.2622
    130  O         78.7310    7.6760   22.9880 O.2   141  ASP141     -0.2715
    131  CB        78.2160    5.0970   20.8690 C.3   141  ASP141      0.1450
    132  CG        79.1730    3.9410   20.6580 C.2   141  ASP141      0.3671
    133  OD1       80.2920    4.0230   21.1610 O.co2 141  ASP141     -0.2456
    134  OD2       78.8100    2.9620   20.0080 O.co2 141  ASP141     -0.2456
    135  N         76.5970    7.2250   22.2450 N.am  142  GLU142     -0.1963
    136  CA        75.9090    8.4980   22.4830 C.3   142  GLU142      0.1733
    137  C         76.1000    9.0340   23.9140 C.2   142  GLU142      0.2616
    138  O         75.6630    8.4430   24.9090 O.2   142  GLU142     -0.2715
    139  CB        74.4780    8.1620   22.1040 C.3   142  GLU142      0.0429
    140  CG        73.3080    8.9250   22.6890 C.3   142  GLU142      0.1163
    141  CD        73.1160   10.3960   22.3060 C.2   142  GLU142      0.3649
    142  OE1       72.7440   10.6340   21.1550 O.co2 142  GLU142     -0.2457
    143  OE2       73.2980   11.2840   23.1600 O.co2 142  GLU142     -0.2457
    144  N         76.8450   10.1230   24.0700 N.am  143  LEU143     -0.1963
    145  CA        77.1840   10.6650   25.3890 C.3   143  LEU143      0.1728
    146  C         75.9640   11.1130   26.2130 C.2   143  LEU143      0.2616
    147  O         75.0550   11.8340   25.7730 O.2   143  LEU143     -0.2715
    148  CB        78.1870   11.8020   25.1540 C.3   143  LEU143      0.0311
    149  CG        79.2450   12.2210   26.1870 C.3   143  LEU143      0.0022
    150  CD1       78.6040   12.8560   27.3990 C.3   143  LEU143      0.0001
    151  CD2       80.0720   11.0030   26.5600 C.3   143  LEU143      0.0001
    152  N         75.9400   10.5520   27.4280 N.am  144  ASP144     -0.1971
    153  CA        74.7750   10.5910   28.3040 C.3   144  ASP144      0.1709
    154  C         73.4120   10.2840   27.7070 C.2   144  ASP144      0.2293
    155  O         72.4000   10.5950   28.3310 O.2   144  ASP144     -0.2864
    156  CB        74.6750   11.9170   28.9920 C.3   144  ASP144      0.1436
    157  CG        75.8360   12.0280   29.9360 C.2   144  ASP144      0.3671
    158  OD1       76.1640   11.0740   30.6530 O.co2 144  ASP144     -0.2456
    159  OD2       76.4440   13.0860   29.9420 O.co2 144  ASP144     -0.2456
@<TRIPOS>BOND
     1   134   132   ar
     2   132   131    1
     3   132   133   ar
     4   131   128    1
     5   142   141   ar
     6   139   136    1
     7   139   140    1
     8   135   136    1
     9   135   129   am
    10   141   140    1
    11   141   143   ar
    12   128   129    1
    13   128   127    1
    14   136   137    1
    15   129   130    2
    16    10     9    1
    17   127   122   am
    18    11     9    1
    19     1     2    1
    20     5     2    1
    21     5     6    1
    22   126   124    1
    23     9     8    2
    24     3     2    1
    25     3     4    2
    26     6     7    1
    27   137   144   am
    28   137   138    2
    29   144   145    1
    30   122   121    1
    31   122   123    2
    32     8     7    1
    33    71    70    1
    34   124   125    1
    35   124   121    1
    36    68    69    2
    37    68    67    1
    38    70    67    1
    39    70    72    1
    40    61    60    2
    41   121   120    1
    42   148   145    1
    43   148   149    1
    44    56    54    1
    45    66    67    1
    46   145   146    1
    47    60    59    1
    48   147   146    2
    49    57    55    1
    50   149   151    1
    51   149   150    1
    52   146   152   am
    53    54    55    1
    54    54    51    1
    55   120   115   am
    56    59    58    1
    57    59    62    1
    58   116   115    2
    59    58    52   am
    60    53    52    2
    61    52    51    1
    62   115   114    1
    63   152   153    1
    64    51    50    1
    65    62    63    1
    66   154   153    1
    67   154   155    2
    68    49    47    1
    69   153   156    1
    70   118   117    1
    71    50    41   am
    72   114   117    1
    73   114   113    1
    74    48    47    1
    75   156   157    1
    76    47    46    2
    77    63    65    1
    78    63    64    1
    79   117   119    1
    80    41    42    2
    81    41    40    1
    82    92    91    1
    83    92    93    1
    84   157   159   ar
    85   157   158   ar
    86   109   111   ar
    87   109   108   ar
    88    46    45    1
    89   111   112   ar
    90   101   100    1
    91    40    43    1
    92    40    39    1
    93    43    44    1
    94    93    95   am
    95    93    94    2
    96    95    96    1
    97   108   107    1
    98   108   110   ar
    99   112   110   ar
   100    45    44    1
   101   107   104    1
   102    39    33   am
   103   105   104    1
   104   105   106    2
   105   100    99    1
   106   100   102    1
   107    98    97    2
   108    89    87   ar
   109    89    90   ar
   110    99    96    1
   111    19    17    1
   112   104   103    1
   113    34    33    2
   114    96    97    1
   115    87    86   ar
   116    90    88   ar
   117    29    27   ar
   118    29    30   ar
   119    33    32    1
   120    86    88   ar
   121    86    85    1
   122    80    78   am
   123    77    78    1
   124    77    74    1
   125    27    25   ar
   126    30    28   ar
   127    18    17    1
   128    17    16    1
   129    78    79    2
   130    85    82    1
   131    23    22    2
   132    73    74    1
   133    32    35    1
   134    32    31    1
   135    74    75    1
   136    16    13    1
   137    25    24    1
   138    25    26   ar
   139    28    26   ar
   140    35    36    1
   141    76    75    2
   142    22    31   am
   143    22    21    1
   144    82    81    1
   145    82    83    1
   146    24    21    1
   147    37    36    1
   148    37    38    1
   149    21    20    1
   150    83    84    2
   151    12    13    1
   152    13    14    1
   153    14    15    2
