@<TRIPOS>MOLECULE
tmp/1cdkC00.pdb
 196 186 0 0 0
SMALL
GASTEIGER

@<TRIPOS>ATOM
      1  N         13.6890   10.1350   38.5630 N.3    42  LEU42      -0.1231
      2  CA        15.1360   10.3620   38.6950 C.3    42  LEU42       0.1693
      3  C         15.9370   10.0830   37.4330 C.2    42  LEU42       0.2593
      4  O         17.0430   10.6360   37.2690 O.2    42  LEU42      -0.2718
      5  CB        15.7730    9.5680   39.8310 C.3    42  LEU42       0.0284
      6  CG        15.1540    9.8670   41.1780 C.3    42  LEU42       0.0019
      7  CD1       15.4840    8.7170   42.2240 C.3    42  LEU42       0.0001
      8  CD2       15.4780   11.3410   41.6310 C.3    42  LEU42       0.0001
      9  N         15.4340    9.1870   36.5950 N.am   43  GLY43      -0.1942
     10  CA        16.1500    8.8150   35.4060 C.3    43  GLY43       0.2014
     11  C         15.2980    7.8070   34.7080 C.2    43  GLY43       0.2640
     12  O         14.3580    7.2470   35.2630 O.2    43  GLY43      -0.2714
     13  N         15.5110    7.7440   33.4030 N.am   44  THR44      -0.1936
     14  CA        14.8760    6.7130   32.5840 C.3    44  THR44       0.2028
     15  C         15.9920    5.8960   31.8400 C.2    44  THR44       0.2643
     16  O         17.1670    6.2680   31.8950 O.2    44  THR44      -0.2714
     17  CB        14.0420    7.3970   31.5430 C.3    44  THR44       0.1808
     18  OG1       14.9090    8.3750   30.9430 O.3    44  THR44      -0.2208
     19  CG2       12.7610    7.9810   32.2050 C.3    44  THR44       0.0379
     20  N         15.5900    4.8760   31.0820 N.am   45  GLY45      -0.1939
     21  CA        16.5350    4.1020   30.3220 C.3    45  GLY45       0.2014
     22  C         15.9080    3.4600   29.1310 C.2    45  GLY45       0.2640
     23  O         14.7880    3.7990   28.7980 O.2    45  GLY45      -0.2714
     24  N         16.6090    2.5340   28.4720 N.am   46  SER46      -0.1935
     25  CA        15.9700    1.7600   27.4000 C.3    46  SER46       0.2055
     26  C         14.8680    0.7970   27.9590 C.2    46  SER46       0.2643
     27  O         14.0150    0.3460   27.2150 O.2    46  SER46      -0.2714
     28  CB        17.0120    0.8380   26.7750 C.3    46  SER46       0.2130
     29  OG        17.6100    1.3950   25.6450 O.3    46  SER46      -0.2179
     30  N         14.8720    0.4750   29.2460 N.am   47  PHE47      -0.1959
     31  CA        13.9770   -0.5340   29.7430 C.3    47  PHE47       0.1771
     32  C         12.9870   -0.0110   30.7760 C.2    47  PHE47       0.2620
     33  O         11.7880   -0.2540   30.6270 O.2    47  PHE47      -0.2715
     34  CB        14.8070   -1.7370   30.2670 C.3    47  PHE47       0.0574
     35  CG        15.7370   -2.2870   29.1990 C.ar   47  PHE47      -0.0200
     36  CD1       15.2330   -2.8090   28.0120 C.ar   47  PHE47      -0.0042
     37  CD2       17.1260   -2.1230   29.2890 C.ar   47  PHE47      -0.0042
     38  CE1       16.0550   -3.1430   26.9320 C.ar   47  PHE47      -0.0003
     39  CE2       17.9940   -2.4820   28.2020 C.ar   47  PHE47      -0.0003
     40  CZ        17.4580   -2.9750   27.0530 C.ar   47  PHE47      -0.0000
     41  N         13.4980    0.6880   31.7720 N.am   48  GLY48      -0.1954
     42  CA        12.6930    1.2260   32.8430 C.3    48  GLY48       0.1869
     43  C         12.8490    2.6920   33.2300 C.2    48  GLY48       0.2309
     44  O         13.4920    3.4610   32.5100 O.2    48  GLY48      -0.2863
     45  N         13.2090    5.0300   36.8950 N.3    50  VAL50      -0.1245
     46  CA        13.4460    5.0300   38.3320 C.3    50  VAL50       0.1561
     47  C         12.8050    6.3070   38.9420 C.2    50  VAL50       0.2260
     48  O         13.0070    7.4190   38.3760 O.2    50  VAL50      -0.2867
     49  CB        14.8900    4.9880   38.5410 C.3    50  VAL50       0.0252
     50  CG1       15.1840    4.9030   39.9570 C.3    50  VAL50       0.0019
     51  CG2       15.3990    3.6610   37.9280 C.3    50  VAL50       0.0019
     52  N         14.5680    4.8010   45.9470 N.3    63  ALA63      -0.1245
     53  CA        14.4540    5.0290   44.4940 C.3    63  ALA63       0.1562
     54  C         13.8810    3.6990   43.9680 C.2    63  ALA63       0.2260
     55  O         14.3780    2.6740   44.3730 O.2    63  ALA63      -0.2867
     56  CB        15.7780    5.2690   43.8880 C.3    63  ALA63       0.0290
     57  N         12.7190    1.3250   40.6550 N.3    65  LYS65      -0.1245
     58  CA        12.7240    1.1760   39.1830 C.3    65  LYS65       0.1561
     59  C         11.4160    0.4750   38.9080 C.2    65  LYS65       0.2260
     60  O         11.0940   -0.4590   39.6760 O.2    65  LYS65      -0.2867
     61  CB        13.8780    0.2330   38.7810 C.3    65  LYS65       0.0271
     62  CG        14.1150    0.0870   37.2690 C.3    65  LYS65       0.0035
     63  CD        15.4730   -0.6060   37.0820 C.3    65  LYS65       0.0206
     64  CE        15.5870   -0.7690   35.6410 C.3    65  LYS65       0.1093
     65  NZ        16.8930   -1.4250   35.3660 N.3    65  LYS65      -0.1314
     66  N         24.5990   -0.6850   44.8140 N.3    97  VAL97      -0.1245
     67  CA        23.2970   -0.1600   45.3330 C.3    97  VAL97       0.1561
     68  C         22.5670   -1.2980   46.1290 C.2    97  VAL97       0.2260
     69  O         22.7590   -2.4790   45.8290 O.2    97  VAL97      -0.2867
     70  CB        22.4220    0.4450   44.1410 C.3    97  VAL97       0.0252
     71  CG1       21.6540   -0.6370   43.3230 C.3    97  VAL97       0.0019
     72  CG2       21.4250    1.4990   44.6270 C.3    97  VAL97       0.0019
     73  N         15.1500    0.3710   45.7330 N.3   113  MET113     -0.1230
     74  CA        16.5310    0.4140   46.2550 C.3   113  MET113      0.1702
     75  C         16.7440    1.6150   47.1800 C.2   113  MET113      0.2592
     76  O         15.8940    2.5250   47.2390 O.2   113  MET113     -0.2718
     77  CB        17.5280    0.5690   45.0740 C.3   113  MET113      0.0401
     78  CG        17.3820   -0.2830   43.8090 C.3   113  MET113      0.0596
     79  SD        18.0070    0.3560   42.2530 S.3   113  MET113     -0.1393
     80  CE        16.6380    1.1300   41.4110 C.3   113  MET113      0.0692
     81  N         17.9160    1.6420   47.8050 N.am  114  GLU114     -0.1966
     82  CA        18.3710    2.8470   48.4690 C.3   114  GLU114      0.1733
     83  C         18.5330    4.0090   47.4470 C.2   114  GLU114      0.2616
     84  O         18.8110    3.7680   46.2460 O.2   114  GLU114     -0.2715
     85  CB        19.6470    2.6090   49.2230 C.3   114  GLU114      0.0429
     86  CG        20.8990    2.5410   48.3980 C.3   114  GLU114      0.1163
     87  CD        22.1720    2.4720   49.2630 C.2   114  GLU114      0.3649
     88  OE1       22.1630    2.9110   50.4650 O.co2 114  GLU114     -0.2457
     89  OE2       23.1370    1.8870   48.7000 O.co2 114  GLU114     -0.2457
     90  N         18.1110    5.2200   47.8710 N.am  115  TYR115     -0.1960
     91  CA        18.2450    6.4180   47.0490 C.3   115  TYR115      0.1771
     92  C         19.7230    6.9260   47.1530 C.2   115  TYR115      0.2619
     93  O         20.2260    7.2300   48.2490 O.2   115  TYR115     -0.2715
     94  CB        17.2120    7.4740   47.5450 C.3   115  TYR115      0.0574
     95  CG        17.3080    8.8440   46.9220 C.ar  115  TYR115     -0.0198
     96  CD1       17.4890    9.0040   45.5320 C.ar  115  TYR115     -0.0009
     97  CD2       17.4070    9.9840   47.7500 C.ar  115  TYR115     -0.0009
     98  CE1       17.7560   10.2460   44.9420 C.ar  115  TYR115      0.0417
     99  CE2       17.6890   11.2770   47.1620 C.ar  115  TYR115      0.0417
    100  CZ        17.8240   11.3980   45.7810 C.ar  115  TYR115      0.1957
    101  OH        17.7340   12.6360   45.1850 O.3   115  TYR115     -0.2866
    102  N         20.3720    7.0870   45.9940 N.am  116  VAL116     -0.1977
    103  CA        21.7560    7.6060   45.9440 C.3   116  VAL116      0.1596
    104  C         21.5510    9.0650   45.5050 C.2   116  VAL116      0.2287
    105  O         21.2950    9.3770   44.3050 O.2   116  VAL116     -0.2864
    106  CB        22.7270    6.6800   45.1100 C.3   116  VAL116      0.0276
    107  CG1       24.2060    7.0710   45.4190 C.3   116  VAL116      0.0022
    108  CG2       22.5730    5.1880   45.6810 C.3   116  VAL116      0.0022
    109  N         24.0890   11.1490   38.8730 N.3   120  GLU120     -0.1245
    110  CA        24.8710   10.2520   37.9980 C.3   120  GLU120      0.1567
    111  C         26.2950   10.7500   37.8600 C.2   120  GLU120      0.2260
    112  O         26.5080   11.9610   37.7730 O.2   120  GLU120     -0.2867
    113  CB        24.3480   10.1520   36.6020 C.3   120  GLU120      0.0388
    114  CG        23.1200    9.3200   36.4800 C.3   120  GLU120      0.1160
    115  CD        22.4390    9.4920   35.1730 C.2   120  GLU120      0.3649
    116  OE1       23.0460   10.1200   34.3070 O.co2 120  GLU120     -0.2457
    117  OE2       21.3070    9.0070   34.8460 O.co2 120  GLU120     -0.2457
    118  N         27.4230   -3.7060   31.7730 N.3   159  ASP159     -0.1239
    119  CA        26.9130   -2.3750   31.3390 C.3   159  ASP159      0.1674
    120  C         27.6100   -1.1350   31.9510 C.2   159  ASP159      0.2266
    121  O         26.9270   -0.3170   32.5920 O.2   159  ASP159     -0.2867
    122  CB        25.3880   -2.2490   31.4760 C.3   159  ASP159      0.1410
    123  CG        24.8420   -1.1830   30.5660 C.2   159  ASP159      0.3668
    124  OD1       25.5350   -0.8010   29.5560 O.co2 159  ASP159     -0.2456
    125  OD2       23.6720   -0.8010   30.8690 O.co2 159  ASP159     -0.2456
    126  N         29.1460    2.1790   32.4670 N.3   161  LYS161     -0.1245
    127  CA        29.0160    3.5260   31.8430 C.3   161  LYS161      0.1561
    128  C         28.7550    4.5390   32.9300 C.2   161  LYS161      0.2260
    129  O         28.2780    4.1710   34.0560 O.2   161  LYS161     -0.2867
    130  CB        27.8900    3.5230   30.7940 C.3   161  LYS161      0.0271
    131  CG        26.4960    3.1250   31.3950 C.3   161  LYS161      0.0035
    132  CD        25.5900    3.3310   30.2150 C.3   161  LYS161      0.0206
    133  CE        24.2770    2.6970   30.6090 C.3   161  LYS161      0.1093
    134  NZ        23.3820    2.5970   29.3810 N.3   161  LYS161     -0.1314
    135  N         26.5100    6.7330   33.3300 N.3   163  GLU163     -0.1231
    136  CA        25.0720    6.7530   33.5430 C.3   163  GLU163      0.1699
    137  C         24.5270    5.7400   34.5250 C.2   163  GLU163      0.2592
    138  O         23.4850    6.0230   35.1960 O.2   163  GLU163     -0.2718
    139  CB        24.3170    6.5180   32.2800 C.3   163  GLU163      0.0402
    140  CG        24.4510    7.6950   31.3290 C.3   163  GLU163      0.1161
    141  CD        25.5770    7.5560   30.3380 C.2   163  GLU163      0.3649
    142  OE1       26.5990    6.9850   30.7210 O.co2 163  GLU163     -0.2457
    143  OE2       25.4630    7.8230   29.1310 O.co2 163  GLU163     -0.2457
    144  N         25.3230    4.6980   34.7960 N.am  164  ASN164     -0.1974
    145  CA        24.9240    3.6290   35.7520 C.3   164  ASN164      0.1688
    146  C         25.6770    3.7220   37.0120 C.2   164  ASN164      0.2292
    147  O         25.5940    2.7850   37.8010 O.2   164  ASN164     -0.2864
    148  CB        25.1070    2.2390   35.1310 C.3   164  ASN164      0.1181
    149  CG        24.0800    1.8970   34.0510 C.2   164  ASN164      0.2629
    150  OD1       22.9610    2.4590   33.9540 O.2   164  ASN164     -0.2716
    151  ND2       24.3870    0.7780   33.3070 N.am  164  ASN164     -0.0877
    152  N         26.4090    5.9920   40.3800 N.3   166  LEU166     -0.1245
    153  CA        25.7800    7.1170   41.1260 C.3   166  LEU166      0.1561
    154  C         26.7210    7.5570   42.1960 C.2   166  LEU166      0.2260
    155  O         27.6210    6.7870   42.5800 O.2   166  LEU166     -0.2867
    156  CB        24.4560    6.6850   41.7700 C.3   166  LEU166      0.0270
    157  CG        23.3990    6.1850   40.7800 C.3   166  LEU166      0.0019
    158  CD1       22.5040    5.3200   41.6420 C.3   166  LEU166      0.0001
    159  CD2       22.7130    7.3410   39.9700 C.3   166  LEU166      0.0001
    160  N         24.5400    0.8750   39.8170 N.3   176  THR176     -0.1203
    161  CA        23.1430    0.5250   39.6720 C.3   176  THR176      0.1994
    162  C         23.0160   -0.2350   38.3310 C.2   176  THR176      0.2617
    163  O         24.0220   -0.5550   37.7030 O.2   176  THR176     -0.2717
    164  CB        22.1970    1.7630   39.7970 C.3   176  THR176      0.1784
    165  OG1       20.8310    1.3130   39.9070 O.3   176  THR176     -0.2211
    166  CG2       22.2540    2.6490   38.4880 C.3   176  THR176      0.0376
    167  N         21.7780   -0.5120   37.9010 N.am  177  ASP177     -0.1973
    168  CA        21.4560   -1.2270   36.6770 C.3   177  ASP177      0.1709
    169  C         22.2010   -2.5670   36.5050 C.2   177  ASP177      0.2293
    170  O         23.2190   -2.6360   35.8020 O.2   177  ASP177     -0.2864
    171  CB        21.6280   -0.3780   35.4220 C.3   177  ASP177      0.1436
    172  CG        20.8490   -0.8450   34.2540 C.2   177  ASP177      0.3671
    173  OD1       20.0910   -1.7880   34.1140 O.co2 177  ASP177     -0.2456
    174  OD2       21.1080   -0.2910   33.2020 O.co2 177  ASP177     -0.2456
    175  N         21.8660   -6.4160   32.8400 N.3   180  PHE180     -0.1241
    176  CA        22.6230   -7.2950   31.9990 C.3   180  PHE180      0.1605
    177  C         23.5240   -8.1960   32.8300 C.2   180  PHE180      0.2264
    178  O         24.2530   -8.9560   32.2340 O.2   180  PHE180     -0.2867
    179  CB        23.4660   -6.5780   30.9430 C.3   180  PHE180      0.0534
    180  CG        22.7040   -5.8020   29.9910 C.ar  180  PHE180     -0.0203
    181  CD1       21.3700   -6.1620   29.6740 C.ar  180  PHE180     -0.0042
    182  CD2       23.3340   -4.7380   29.3170 C.ar  180  PHE180     -0.0042
    183  CE1       20.6430   -5.4360   28.6730 C.ar  180  PHE180     -0.0003
    184  CE2       22.6380   -4.0540   28.3500 C.ar  180  PHE180     -0.0003
    185  CZ        21.2900   -4.3830   28.0280 C.ar  180  PHE180     -0.0000
    186  N         19.9310   15.6170   39.8680 N.3   319  PHE319     -0.1241
    187  CA        19.4500   14.8260   38.7110 C.3   319  PHE319      0.1605
    188  C         18.6980   15.7430   37.8570 C.2   319  PHE319      0.2264
    189  O         17.9690   16.5170   38.4380 O.2   319  PHE319     -0.2867
    190  CB        18.3080   13.8110   39.0550 C.3   319  PHE319      0.0534
    191  CG        18.7820   12.6670   39.8810 C.ar  319  PHE319     -0.0203
    192  CD1       18.9770   12.8530   41.2620 C.ar  319  PHE319     -0.0042
    193  CD2       19.2500   11.4720   39.2320 C.ar  319  PHE319     -0.0042
    194  CE1       19.6700   11.8550   42.0220 C.ar  319  PHE319     -0.0003
    195  CE2       19.9440   10.4850   39.9440 C.ar  319  PHE319     -0.0003
    196  CZ        20.1650   10.6560   41.3450 C.ar  319  PHE319     -0.0000
@<TRIPOS>BOND
     1    29    28    1
     2    28    25    1
     3    38    40   ar
     4    38    36   ar
     5    40    39   ar
     6    27    26    2
     7    25    26    1
     8    25    24    1
     9    26    30   am
    10    36    35   ar
    11   185   184   ar
    12   185   183   ar
    13    39    37   ar
    14   184   182   ar
    15    24    22   am
    16   183   181   ar
    17    23    22    2
    18    22    21    1
    19   143   141   ar
    20    35    37   ar
    21    35    34    1
    22    30    31    1
    23   182   180   ar
    24   134   133    1
    25   124   123   ar
    26   181   180   ar
    27    31    34    1
    28    31    32    1
    29   180   179    1
    30   132   133    1
    31   132   131    1
    32    21    20    1
    33   141   142   ar
    34   141   140    1
    35   123   125   ar
    36   123   122    1
    37    33    32    2
    38    32    41   am
    39   130   131    1
    40   130   127    1
    41    18    17    1
    42   179   176    1
    43    20    15   am
    44   140   139    1
    45   119   122    1
    46   119   118    1
    47   119   120    1
    48    17    19    1
    49    17    14    1
    50    41    42    1
    51    15    16    2
    52    15    14    1
    53   127   126    1
    54   127   128    1
    55   120   121    2
    56   176   177    1
    57   176   175    1
    58   178   177    2
    59   139   136    1
    60    44    43    2
    61    14    13    1
    62    42    43    1
    63   128   129    2
    64   174   172   ar
    65   151   149   am
    66   135   136    1
    67    13    11   am
    68   136   137    1
    69   150   149    2
    70   149   148    1
    71   173   172   ar
    72   172   171    1
    73   116   115   ar
    74   137   144   am
    75   137   138    2
    76    11    12    2
    77    11    10    1
    78   144   145    1
    79   117   115   ar
    80   148   145    1
    81   115   114    1
    82    65    64    1
    83    10     9    1
    84   171   168    1
    85    64    63    1
    86   145   146    1
    87   170   169    2
    88   114   113    1
    89   169   168    1
    90     9     3   am
    91   113   110    1
    92   168   167    1
    93    45    46    1
    94   146   147    2
    95    63    62    1
    96    62    61    1
    97     4     3    2
    98     3     2    1
    99   163   162    2
   100   112   111    2
   101   188   189    2
   102   188   187    1
   103   111   110    1
   104   167   162   am
   105    51    49    1
   106   110   109    1
   107   162   161    1
   108    46    49    1
   109    46    47    1
   110    48    47    2
   111   166   164    1
   112    49    50    1
   113     1     2    1
   114     2     5    1
   115   187   190    1
   116   187   186    1
   117    61    58    1
   118    59    58    1
   119    59    60    2
   120   190   191    1
   121    58    57    1
   122   193   191   ar
   123   193   195   ar
   124   161   164    1
   125   161   160    1
   126   164   165    1
   127     5     6    1
   128   191   192   ar
   129   195   196   ar
   130   159   157    1
   131   152   153    1
   132   157   158    1
   133   157   156    1
   134   153   156    1
   135   153   154    1
   136     6     8    1
   137     6     7    1
   138   192   194   ar
   139   196   194   ar
   140    80    79    1
   141   154   155    2
   142    79    78    1
   143    71    70    1
   144    78    77    1
   145    56    53    1
   146    54    55    2
   147    54    53    1
   148    70    72    1
   149    70    67    1
   150   105   104    2
   151    53    52    1
   152    66    67    1
   153    98    96   ar
   154    98   100   ar
   155    77    74    1
   156   106   107    1
   157   106   108    1
   158   106   103    1
   159   101   100    1
   160    67    68    1
   161   104   103    1
   162    96    95   ar
   163    73    74    1
   164   100    99   ar
   165    69    68    2
   166   103   102    1
   167   102    92   am
   168    84    83    2
   169    74    75    1
   170    95    94    1
   171    95    97   ar
   172    91    92    1
   173    91    94    1
   174    91    90    1
   175    92    93    2
   176    99    97   ar
   177    75    76    2
   178    75    81   am
   179    83    90   am
   180    83    82    1
   181    81    82    1
   182    86    85    1
   183    86    87    1
   184    82    85    1
   185    89    87   ar
   186    87    88   ar
