@<TRIPOS>MOLECULE
tmp/1ce1B00.pdb
 110 106 0 0 0
SMALL
GASTEIGER

@<TRIPOS>ATOM
      1  N         19.1010   31.4590   78.3990 N.3    31  ASP31      -0.1239
      2  CA        17.6680   31.4220   78.6120 C.3    31  ASP31       0.1674
      3  C         16.9050   30.5240   77.6670 C.2    31  ASP31       0.2266
      4  O         15.6590   30.5800   77.6650 O.2    31  ASP31      -0.2867
      5  CB        17.0750   32.8530   78.4490 C.3    31  ASP31       0.1410
      6  CG        17.3290   33.6790   79.6910 C.2    31  ASP31       0.3668
      7  OD1       17.8600   33.1250   80.6750 O.co2  31  ASP31      -0.2456
      8  OD2       17.0030   34.8810   79.6690 O.co2  31  ASP31      -0.2456
      9  N         16.7800   26.5900   75.4840 N.3    33  TYR33      -0.1241
     10  CA        17.4030   25.2550   75.2750 C.3    33  TYR33       0.1605
     11  C         18.1100   25.3170   73.8880 C.2    33  TYR33       0.2264
     12  O         17.7380   26.1340   73.0470 O.2    33  TYR33      -0.2867
     13  CB        16.3730   24.1490   75.3090 C.3    33  TYR33       0.0534
     14  CG        15.6500   23.9390   76.6190 C.ar   33  TYR33      -0.0201
     15  CD1       15.7120   24.8170   77.6940 C.ar   33  TYR33      -0.0009
     16  CD2       14.8670   22.7960   76.7540 C.ar   33  TYR33      -0.0009
     17  CE1       15.0180   24.5800   78.8660 C.ar   33  TYR33       0.0417
     18  CE2       14.1720   22.5480   77.9260 C.ar   33  TYR33       0.0417
     19  CZ        14.2520   23.4350   78.9640 C.ar   33  TYR33       0.1957
     20  OH        13.5790   23.1560   80.1370 O.3    33  TYR33      -0.2866
     21  N         18.5570   17.6420   73.0960 N.3    50  PHE50      -0.1241
     22  CA        18.6950   19.0060   73.4880 C.3    50  PHE50       0.1605
     23  C         19.4300   19.1590   74.8370 C.2    50  PHE50       0.2264
     24  O         19.5590   18.2130   75.5910 O.2    50  PHE50      -0.2867
     25  CB        17.4350   19.8460   73.5050 C.3    50  PHE50       0.0534
     26  CG        16.3380   19.3640   74.4240 C.ar   50  PHE50      -0.0203
     27  CD1       16.5350   19.3210   75.7930 C.ar   50  PHE50      -0.0042
     28  CD2       15.1470   18.9090   73.9030 C.ar   50  PHE50      -0.0042
     29  CE1       15.5590   18.8410   76.6480 C.ar   50  PHE50      -0.0003
     30  CE2       14.1430   18.4440   74.7620 C.ar   50  PHE50      -0.0003
     31  CZ        14.3670   18.4040   76.1170 C.ar   50  PHE50      -0.0000
     32  N         19.4100   21.7510   78.1120 N.3    52  ARG52      -0.1231
     33  CA        18.5380   22.7660   78.7090 C.3    52  ARG52       0.1694
     34  C         19.2460   24.0430   79.0500 C.2    52  ARG52       0.2592
     35  O         20.2840   24.4010   78.4910 O.2    52  ARG52      -0.2718
     36  CB        17.7910   22.1730   79.9060 C.3    52  ARG52       0.0321
     37  CG        16.9300   20.9590   79.5220 C.3    52  ARG52       0.0489
     38  CD        15.8830   20.7340   80.6330 C.3    52  ARG52       0.2205
     39  NE        15.0120   19.6210   80.3430 N.pl3  52  ARG52      -0.0865
     40  CZ        15.2100   18.3470   80.4440 C.cat  52  ARG52       0.5346
     41  NH1       16.3960   17.8470   80.8750 N.pl3  52  ARG52       0.1354
     42  NH2       14.2600   17.4740   80.1330 N.pl3  52  ARG52       0.1354
     43  N         18.5910   24.9100   79.8580 N.am   53  ASP53      -0.1974
     44  CA        19.1180   26.2360   80.1160 C.3    53  ASP53       0.1709
     45  C         19.8060   26.3290   81.4710 C.2    53  ASP53       0.2293
     46  O         19.9150   25.3230   82.1710 O.2    53  ASP53      -0.2864
     47  CB        18.0400   27.3110   79.9830 C.3    53  ASP53       0.1436
     48  CG        16.8470   27.0870   80.9050 C.2    53  ASP53       0.3671
     49  OD1       16.8240   26.1390   81.6880 O.co2  53  ASP53      -0.2456
     50  OD2       15.8840   27.8850   80.8130 O.co2  53  ASP53      -0.2456
     51  N         17.9720   25.1140   84.5930 N.3    56  LYS56      -0.1245
     52  CA        17.8890   23.6660   84.7500 C.3    56  LYS56       0.1561
     53  C         19.2600   23.0260   84.8600 C.2    56  LYS56       0.2260
     54  O         19.3790   21.7980   84.7700 O.2    56  LYS56      -0.2867
     55  CB        17.1190   23.0510   83.5580 C.3    56  LYS56       0.0271
     56  CG        15.6680   23.4960   83.4940 C.3    56  LYS56       0.0035
     57  CD        14.7230   22.4300   84.0120 C.3    56  LYS56       0.0206
     58  CE        13.2880   22.9250   84.0790 C.3    56  LYS56       0.1093
     59  NZ        12.9490   23.9030   83.0180 N.3    56  LYS56      -0.1314
     60  N         18.4720   15.7470   77.1420 N.3    61  GLU61      -0.1245
     61  CA        17.6310   14.6140   76.7290 C.3    61  GLU61       0.1567
     62  C         18.1650   14.1170   75.3770 C.2    61  GLU61       0.2260
     63  O         18.3750   14.9730   74.4970 O.2    61  GLU61      -0.2867
     64  CB        16.1750   15.0840   76.5370 C.3    61  GLU61       0.0388
     65  CG        15.4920   15.4990   77.8200 C.3    61  GLU61       0.1160
     66  CD        15.4340   14.4750   78.9110 C.2    61  GLU61       0.3649
     67  OE1       15.5910   13.2590   78.6700 O.co2  61  GLU61      -0.2457
     68  OE2       15.1730   14.8910   80.0790 O.co2  61  GLU61      -0.2457
     69  N         15.8020   26.1400   70.7390 N.3   101  GLU101     -0.1231
     70  CA        14.5050   25.6510   71.1680 C.3   101  GLU101      0.1699
     71  C         13.4310   26.7360   70.9220 C.2   101  GLU101      0.2593
     72  O         12.4900   26.4960   70.1980 O.2   101  GLU101     -0.2718
     73  CB        14.5090   25.2020   72.6060 C.3   101  GLU101      0.0402
     74  CG        13.1070   24.8430   73.1400 C.3   101  GLU101      0.1161
     75  CD        12.6050   23.5310   72.6300 C.2   101  GLU101      0.3649
     76  OE1       13.3600   22.8160   71.9070 O.co2 101  GLU101     -0.2457
     77  OE2       11.4400   23.1590   72.9070 O.co2 101  GLU101     -0.2457
     78  N         13.7040   27.9320   71.4210 N.am  102  GLY102     -0.1942
     79  CA        12.8120   29.0680   71.2590 C.3   102  GLY102      0.2014
     80  C         11.8840   29.1220   72.4950 C.2   102  GLY102      0.2639
     81  O         12.0570   28.2870   73.3970 O.2   102  GLY102     -0.2714
     82  N         11.0310   30.1210   72.5360 N.am  103  HIS103     -0.1959
     83  CA        10.1110   30.2690   73.6750 C.3   103  HIS103      0.1787
     84  C          8.6980   29.9900   73.1950 C.2   103  HIS103      0.2620
     85  O          8.3390   28.8190   73.0240 O.2   103  HIS103     -0.2715
     86  CB        10.2660   31.6250   74.3450 C.3   103  HIS103      0.0785
     87  CG        11.5100   31.6920   75.2090 C.ar  103  HIS103      0.0821
     88  ND1       12.0480   32.8710   75.6550 N.ar  103  HIS103     -0.2267
     89  CD2       12.3180   30.7000   75.6590 C.ar  103  HIS103      0.1154
     90  CE1       13.1340   32.6210   76.3730 C.ar  103  HIS103      0.1986
     91  NE2       13.3360   31.3070   76.3810 N.ar  103  HIS103     -0.2212
     92  N          8.0190   31.0350   72.7090 N.am  104  THR104     -0.1951
     93  CA         6.6620   30.8380   72.1930 C.3   104  THR104      0.1897
     94  C          6.6520   29.9780   70.9490 C.2   104  THR104      0.2313
     95  O          5.9290   28.9670   70.8920 O.2   104  THR104     -0.2863
     96  CB         6.0120   32.2100   71.9230 C.3   104  THR104      0.1794
     97  OG1        5.7680   32.8000   73.2280 O.3   104  THR104     -0.2208
     98  CG2        4.7230   32.0850   71.1590 C.3   104  THR104      0.0378
     99  N          8.2010   27.3210   69.0060 N.3   106  ALA106     -0.1231
    100  CA         9.1680   26.2540   69.3810 C.3   106  ALA106      0.1679
    101  C          8.6300   24.9330   68.8950 C.2   106  ALA106      0.2434
    102  O          7.4020   24.8220   68.7390 O.2   106  ALA106     -0.2733
    103  CB         9.1990   26.2520   70.9310 C.3   106  ALA106      0.0304
    104  N          9.4850   23.9530   68.7040 N.am  107  PRO107     -0.2729
    105  CA        10.9220   24.0820   68.8470 C.3   107  PRO107      0.1401
    106  C         11.5770   24.5160   67.5390 C.2   107  PRO107      0.2269
    107  O         10.9590   24.5160   66.4780 O.2   107  PRO107     -0.2865
    108  CB        11.3820   22.6290   69.1270 C.3   107  PRO107      0.0296
    109  CG        10.1600   21.7780   69.1100 C.3   107  PRO107      0.0237
    110  CD         9.1120   22.5540   68.3440 C.3   107  PRO107      0.0939
@<TRIPOS>BOND
     1   107   106    2
     2   106   105    1
     3   110   104    1
     4   110   109    1
     5   104   105    1
     6   104   101   am
     7   102   101    2
     8   105   108    1
     9   101   100    1
    10    99   100    1
    11   109   108    1
    12   100   103    1
    13    72    71    2
    14    69    70    1
    15    95    94    2
    16    71    70    1
    17    71    78   am
    18    94    93    1
    19    98    96    1
    20    70    73    1
    21    79    78    1
    22    79    80    1
    23    76    75   ar
    24    96    93    1
    25    96    97    1
    26    93    92    1
    27    80    82   am
    28    80    81    2
    29    82    83    1
    30    73    74    1
    31    75    77   ar
    32    75    74    1
    33    92    84   am
    34    85    84    2
    35    12    11    2
    36    21    22    1
    37    84    83    1
    38    22    25    1
    39    22    23    1
    40    25    26    1
    41    83    86    1
    42    11    10    1
    43    28    26   ar
    44    28    30   ar
    45    86    87    1
    46    26    27   ar
    47    63    62    2
    48    30    31   ar
    49    23    24    2
    50    87    88   ar
    51    87    89   ar
    52    10    13    1
    53    10     9    1
    54    13    14    1
    55    62    61    1
    56    88    90   ar
    57    89    91   ar
    58    27    29   ar
    59    31    29   ar
    60    90    91   ar
    61    64    61    1
    62    64    65    1
    63    14    16   ar
    64    14    15   ar
    65    61    60    1
    66    16    18   ar
    67     4     3    2
    68     3     2    1
    69    15    17   ar
    70    65    66    1
    71    18    19   ar
    72    32    33    1
    73     1     2    1
    74     5     2    1
    75     5     6    1
    76    35    34    2
    77    67    66   ar
    78    33    34    1
    79    33    36    1
    80    17    19   ar
    81    66    68   ar
    82    19    20    1
    83    34    43   am
    84    37    36    1
    85    37    38    1
    86     8     6   ar
    87     6     7   ar
    88    43    44    1
    89    47    44    1
    90    47    48    1
    91    44    45    1
    92    42    40    1
    93    39    40    2
    94    39    38    1
    95    40    41    1
    96    50    48   ar
    97    48    49   ar
    98    45    46    2
    99    59    58    1
   100    56    55    1
   101    56    57    1
   102    55    52    1
   103    57    58    1
   104    51    52    1
   105    52    53    1
   106    54    53    2
