@<TRIPOS>MOLECULE
tmp/1cedA00.pdb
 220 212 0 0 0
SMALL
GASTEIGER

@<TRIPOS>ATOM
      1  N          8.3030   -2.6410    0.4010 N.3    11  PHE11      -0.1241
      2  CA         7.7540   -1.5610    1.2080 C.3    11  PHE11       0.1605
      3  C          8.8550   -0.6370    1.7190 C.2    11  PHE11       0.2264
      4  O          8.8870    0.5540    1.4040 O.2    11  PHE11      -0.2867
      5  CB         6.9400   -2.1420    2.3690 C.3    11  PHE11       0.0534
      6  CG         6.2590   -1.0930    3.2160 C.ar   11  PHE11      -0.0203
      7  CD1        5.0440   -0.5340    2.7870 C.ar   11  PHE11      -0.0042
      8  CD2        6.9040   -0.5820    4.3590 C.ar   11  PHE11      -0.0042
      9  CE1        4.5190    0.5890    3.4460 C.ar   11  PHE11      -0.0003
     10  CE2        6.3430    0.5020    5.0530 C.ar   11  PHE11      -0.0003
     11  CZ         5.1610    1.1010    4.5860 C.ar   11  PHE11      -0.0000
     12  N         10.4830    1.2480   -1.2430 N.3    14  ASN14      -0.1225
     13  CA         9.7080    1.9640   -2.2500 C.3    14  ASN14       0.1785
     14  C          8.6160    2.8300   -1.6310 C.2    14  ASN14       0.2597
     15  O          8.2990    3.9020   -2.1440 O.2    14  ASN14      -0.2718
     16  CB         9.0560    0.9670   -3.2180 C.3    14  ASN14       0.1169
     17  CG        10.0780    0.2100   -4.0570 C.2    14  ASN14       0.2627
     18  OD1       10.3810    0.5990   -5.1790 O.2    14  ASN14      -0.2716
     19  ND2       10.6140   -0.8840   -3.5230 N.am   14  ASN14      -0.0877
     20  N          7.9860    2.3230   -0.5720 N.am   15  CYS15      -0.1970
     21  CA         6.7170    2.8180   -0.0600 C.3    15  CYS15       0.1712
     22  C          6.9780    3.6560    1.1880 C.2    15  CYS15       0.2296
     23  O          6.4360    4.7520    1.3340 O.2    15  CYS15      -0.2864
     24  CB         5.8120    1.6520    0.2490 C.3    15  CYS15       0.0983
     25  SG         5.6490    0.4640   -1.1230 S.3    15  CYS15      -0.0798
     26  N          9.2250    5.5790    1.8010 N.3    17  ALA17      -0.1231
     27  CA         9.4950    6.9240    1.3050 C.3    17  ALA17       0.1694
     28  C          8.3860    7.9160    1.6730 C.2    17  ALA17       0.2592
     29  O          8.6790    9.0300    2.1010 O.2    17  ALA17      -0.2718
     30  CB         9.6790    6.8740   -0.2150 C.3    17  ALA17       0.0304
     31  N          7.1230    7.5110    1.4950 N.am   18  CYS18      -0.1956
     32  CA         5.9570    8.3280    1.8120 C.3    18  CYS18       0.1843
     33  C          5.2120    7.7800    3.0310 C.2    18  CYS18       0.2625
     34  O          4.5800    8.5570    3.7440 O.2    18  CYS18      -0.2714
     35  CB         5.0350    8.4120    0.6240 C.3    18  CYS18       0.0997
     36  SG         5.8140    9.3350   -0.7340 S.3    18  CYS18      -0.0797
     37  N          5.2500    6.4630    3.2600 N.am   19  HIS19      -0.1973
     38  CA         4.4330    5.7820    4.2600 C.3    19  HIS19       0.1656
     39  C          5.2360    5.1730    5.4100 C.2    19  HIS19       0.2291
     40  O          4.6930    4.3150    6.0950 O.2    19  HIS19      -0.2864
     41  CB         3.6090    4.6930    3.5660 C.3    19  HIS19       0.0771
     42  CG         2.6300    5.2310    2.5630 C.ar   19  HIS19       0.0820
     43  ND1        1.4710    5.9100    2.8580 N.ar   19  HIS19      -0.2267
     44  CD2        2.6210    4.9460    1.2260 C.ar   19  HIS19       0.1154
     45  CE1        0.7710    6.0190    1.7170 C.ar   19  HIS19       0.1986
     46  NE2        1.4260    5.4400    0.6970 N.ar   19  HIS19      -0.2212
     47  N          1.4840    7.9930    6.1440 N.3    24  ASN24      -0.1240
     48  CA         1.3290    8.8640    4.9870 C.3    24  ASN24       0.1653
     49  C          1.9120   10.2560    5.2520 C.2    24  ASN24       0.2266
     50  O          1.3740   11.0050    6.0600 O.2    24  ASN24      -0.2867
     51  CB        -0.1460    8.9670    4.6360 C.3    24  ASN24       0.1155
     52  CG        -0.3210    9.5380    3.2340 C.2    24  ASN24       0.2627
     53  OD1        0.3480   10.4850    2.8230 O.2    24  ASN24      -0.2716
     54  ND2       -1.1850    8.8940    2.4670 N.am   24  ASN24      -0.0877
     55  N          2.2090   12.6280    2.8610 N.3    26  VAL26      -0.1231
     56  CA         1.6170   13.5970    1.9460 C.3    26  VAL26       0.1692
     57  C          0.2890   14.0940    2.5200 C.2    26  VAL26       0.2591
     58  O          0.0740   15.2980    2.6410 O.2    26  VAL26      -0.2718
     59  CB         1.4590   12.9730    0.5490 C.3    26  VAL26       0.0266
     60  CG1        0.8950   13.9920   -0.4520 C.3    26  VAL26       0.0020
     61  CG2        2.8100   12.4740    0.0190 C.3    26  VAL26       0.0020
     62  N         -0.6020   13.1610    2.8650 N.am   27  ILE27      -0.1980
     63  CA        -1.8900   13.4290    3.4930 C.3    27  ILE27       0.1595
     64  C         -1.8400   12.7510    4.8710 C.2    27  ILE27       0.2287
     65  O         -2.0850   11.5470    4.9440 O.2    27  ILE27      -0.2864
     66  CB        -3.0340   12.9110    2.5970 C.3    27  ILE27       0.0276
     67  CG1       -2.9270   13.5220    1.1870 C.3    27  ILE27       0.0022
     68  CG2       -4.3860   13.2700    3.2310 C.3    27  ILE27       0.0022
     69  CD1       -4.0820   13.1220    0.2630 C.3    27  ILE27       0.0001
     70  N         -4.1930    9.9310    6.0280 N.3    30  HIS30      -0.1226
     71  CA        -4.5430    8.9200    5.0340 C.3    30  HIS30       0.1752
     72  C         -3.5330    7.7630    5.1090 C.2    30  HIS30       0.2597
     73  O         -2.8950    7.3950    4.1180 O.2    30  HIS30      -0.2718
     74  CB        -4.6250    9.6250    3.6730 C.3    30  HIS30       0.0759
     75  CG        -5.4800    8.9640    2.6220 C.ar   30  HIS30       0.0818
     76  ND1       -5.5070    7.6290    2.2980 N.ar   30  HIS30      -0.2268
     77  CD2       -6.3240    9.6080    1.7560 C.ar   30  HIS30       0.1154
     78  CE1       -6.3240    7.4830    1.2390 C.ar   30  HIS30       0.1986
     79  NE2       -6.8410    8.6640    0.8710 N.ar   30  HIS30      -0.2212
     80  N         -3.3530    7.2380    6.3260 N.am   31  THR31      -0.1939
     81  CA        -2.3570    6.2500    6.7180 C.3    31  THR31       0.2028
     82  C         -2.7320    4.8600    6.2120 C.2    31  THR31       0.2642
     83  O         -3.9000    4.6000    5.9480 O.2    31  THR31      -0.2714
     84  CB        -2.3050    6.2380    8.2530 C.3    31  THR31       0.1808
     85  OG1       -3.6200    6.1560    8.7700 O.3    31  THR31      -0.2208
     86  CG2       -1.6780    7.5200    8.8000 C.3    31  THR31       0.0379
     87  N         -1.7910    3.9120    6.1880 N.am   32  LEU32      -0.1977
     88  CA        -2.0690    2.5480    5.7290 C.3    32  LEU32       0.1596
     89  C         -2.8040    1.7070    6.7870 C.2    32  LEU32       0.2287
     90  O         -2.5690    0.5050    6.9060 O.2    32  LEU32      -0.2864
     91  CB        -0.7610    1.8690    5.2990 C.3    32  LEU32       0.0297
     92  CG         0.0470    2.6790    4.2730 C.3    32  LEU32       0.0022
     93  CD1        1.1920    1.8090    3.7510 C.3    32  LEU32       0.0001
     94  CD2       -0.8100    3.1170    3.0850 C.3    32  LEU32       0.0001
     95  N         -8.3640    3.5750    8.0650 N.3    36  ALA36      -0.1231
     96  CA        -8.0790    4.6830    7.1650 C.3    36  ALA36       0.1694
     97  C         -8.3650    4.2460    5.7350 C.2    36  ALA36       0.2591
     98  O         -9.0110    4.9650    4.9790 O.2    36  ALA36      -0.2718
     99  CB        -6.6270    5.1190    7.3410 C.3    36  ALA36       0.0304
    100  N         -7.9670    3.0150    5.4160 N.am   37  ILE37      -0.1980
    101  CA        -8.3970    2.3510    4.2060 C.3    37  ILE37       0.1595
    102  C         -9.9220    2.3570    4.1280 C.2    37  ILE37       0.2287
    103  O        -10.4820    2.8670    3.1630 O.2    37  ILE37      -0.2864
    104  CB        -7.7710    0.9460    4.1410 C.3    37  ILE37       0.0276
    105  CG1       -6.4300    0.9860    3.4100 C.3    37  ILE37       0.0022
    106  CG2       -8.6840   -0.0680    3.4630 C.3    37  ILE37       0.0022
    107  CD1       -5.4520   -0.0700    3.9390 C.3    37  ILE37       0.0001
    108  N        -11.1940    5.9840    3.5720 N.3    40  PHE40      -0.1227
    109  CA       -10.7110    6.7490    2.4270 C.3    40  PHE40       0.1736
    110  C        -10.6880    5.9330    1.1340 C.2    40  PHE40       0.2595
    111  O        -11.0830    6.4410    0.0850 O.2    40  PHE40      -0.2718
    112  CB        -9.3320    7.3470    2.7260 C.3    40  PHE40       0.0547
    113  CG        -9.2720    8.2270    3.9590 C.ar   40  PHE40      -0.0202
    114  CD1      -10.1000    9.3610    4.0550 C.ar   40  PHE40      -0.0042
    115  CD2       -8.3320    7.9620    4.9720 C.ar   40  PHE40      -0.0042
    116  CE1      -10.0090   10.2090    5.1720 C.ar   40  PHE40      -0.0003
    117  CE2       -8.2600    8.7950    6.1020 C.ar   40  PHE40      -0.0003
    118  CZ        -9.0920    9.9230    6.1970 C.ar   40  PHE40      -0.0000
    119  N        -10.1970    4.6920    1.1740 N.am   41  LEU41      -0.1980
    120  CA       -10.1350    3.8390    0.0090 C.3    41  LEU41       0.1596
    121  C        -11.5240    3.5170   -0.5370 C.2    41  LEU41       0.2287
    122  O        -12.1760    2.5760   -0.0920 O.2    41  LEU41      -0.2864
    123  CB        -9.3280    2.5720    0.3100 C.3    41  LEU41       0.0297
    124  CG        -8.5550    2.1420   -0.9420 C.3    41  LEU41       0.0022
    125  CD1       -7.5100    3.2070   -1.3050 C.3    41  LEU41       0.0001
    126  CD2       -7.8480    0.8350   -0.6260 C.3    41  LEU41       0.0001
    127  N         -6.2760   -2.4860   -2.8730 N.3    50  ILE50      -0.1245
    128  CA        -4.9050   -2.1270   -2.5550 C.3    50  ILE50       0.1561
    129  C         -4.0520   -2.1830   -3.8300 C.2    50  ILE50       0.2260
    130  O         -3.4900   -1.1710   -4.2520 O.2    50  ILE50      -0.2867
    131  CB        -4.3690   -3.0490   -1.4400 C.3    50  ILE50       0.0252
    132  CG1       -5.1430   -2.9600   -0.1120 C.3    50  ILE50       0.0019
    133  CG2       -2.8880   -2.7850   -1.1900 C.3    50  ILE50       0.0019
    134  CD1       -5.1400   -1.5910    0.5680 C.3    50  ILE50       0.0001
    135  N         -4.5190    0.4770   -6.4390 N.3    53  GLN53      -0.1231
    136  CA        -3.9290    1.7660   -6.1060 C.3    53  GLN53       0.1698
    137  C         -2.4380    1.7310   -6.4550 C.2    53  GLN53       0.2592
    138  O         -1.9490    2.6060   -7.1690 O.2    53  GLN53      -0.2718
    139  CB        -4.1880    2.1080   -4.6290 C.3    53  GLN53       0.0381
    140  CG        -3.4790    3.4050   -4.1880 C.3    53  GLN53       0.0905
    141  CD        -4.3870    4.5370   -3.7210 C.2    53  GLN53       0.2608
    142  OE1       -5.6070    4.5180   -3.8840 O.2    53  GLN53      -0.2717
    143  NE2       -3.7770    5.5700   -3.1550 N.am   53  GLN53      -0.0878
    144  N         -1.7260    0.7190   -5.9530 N.am   54  ILE54      -0.1980
    145  CA        -0.2900    0.5710   -6.1720 C.3    54  ILE54       0.1595
    146  C          0.0350    0.5490   -7.6700 C.2    54  ILE54       0.2287
    147  O          0.9120    1.2840   -8.1180 O.2    54  ILE54      -0.2864
    148  CB         0.2460   -0.6630   -5.4170 C.3    54  ILE54       0.0276
    149  CG1        0.4940   -0.3680   -3.9260 C.3    54  ILE54       0.0022
    150  CG2        1.5840   -1.1450   -5.9940 C.3    54  ILE54       0.0022
    151  CD1       -0.7900   -0.3590   -3.1040 C.3    54  ILE54       0.0001
    152  N         -3.0590    7.1170   -7.7780 N.3    58  LYS58      -0.1231
    153  CA        -4.3690    7.6420   -7.4840 C.3    58  LYS58       0.1693
    154  C         -4.1630    8.8920   -6.6250 C.2    58  LYS58       0.2593
    155  O         -3.3180    8.9000   -5.7300 O.2    58  LYS58      -0.2718
    156  CB        -5.1060    6.4790   -6.8020 C.3    58  LYS58       0.0285
    157  CG        -6.5760    6.7130   -6.4670 C.3    58  LYS58       0.0035
    158  CD        -6.6940    7.6910   -5.3010 C.3    58  LYS58       0.0206
    159  CE        -7.9050    7.3370   -4.4260 C.3    58  LYS58       0.1093
    160  NZ        -7.5960    6.2710   -3.4550 N.3    58  LYS58      -0.1314
    161  N         -4.8940    9.9700   -6.9100 N.am   59  GLY59      -0.1942
    162  CA        -4.7500   11.2180   -6.1760 C.3    59  GLY59       0.2014
    163  C         -3.3210   11.7500   -6.3000 C.2    59  GLY59       0.2639
    164  O         -2.8970   12.1040   -7.3970 O.2    59  GLY59      -0.2714
    165  N         -2.5830   11.7960   -5.1850 N.am   60  ALA60      -0.1963
    166  CA        -1.2070   12.2850   -5.1400 C.3    60  ALA60       0.1728
    167  C         -0.2080   11.1420   -4.9230 C.2    60  ALA60       0.2616
    168  O          0.8880   11.3750   -4.4150 O.2    60  ALA60      -0.2715
    169  CB        -1.0910   13.3570   -4.0490 C.3    60  ALA60       0.0334
    170  N         -0.5740    9.9110   -5.2970 N.am   61  MET61      -0.1964
    171  CA         0.2860    8.7420   -5.1800 C.3    61  MET61       0.1722
    172  C          0.7620    8.2970   -6.5690 C.2    61  MET61       0.2458
    173  O         -0.0750    8.1260   -7.4560 O.2    61  MET61      -0.2730
    174  CB        -0.5140    7.6400   -4.4890 C.3    61  MET61       0.0427
    175  CG         0.1860    6.2860   -4.5230 C.3    61  MET61       0.0599
    176  SD        -0.3320    5.1600   -3.2190 S.3    61  MET61      -0.1393
    177  CE        -0.0200    3.5650   -4.0040 C.3    61  MET61       0.0692
    178  N          2.0750    8.0940   -6.7830 N.am   62  PRO62      -0.2727
    179  CA         2.5960    7.6450   -8.0630 C.3    62  PRO62       0.1402
    180  C          2.1950    6.1960   -8.3470 C.2    62  PRO62       0.2269
    181  O          1.9180    5.4160   -7.4360 O.2    62  PRO62      -0.2865
    182  CB         4.1180    7.8010   -7.9740 C.3    62  PRO62       0.0296
    183  CG         4.3910    7.6370   -6.4800 C.3    62  PRO62       0.0237
    184  CD         3.1660    8.2920   -5.8420 C.3    62  PRO62       0.0939
    185  N          2.8650    2.3460   -9.9250 N.3    64  TRP64      -0.1241
    186  CA         3.9690    1.3930   -9.8710 C.3    64  TRP64       0.1605
    187  C          3.8650    0.3450  -10.9790 C.2    64  TRP64       0.2264
    188  O          4.7000   -0.5620  -11.0400 O.2    64  TRP64      -0.2867
    189  CB         4.0590    0.7870   -8.4700 C.3    64  TRP64       0.0550
    190  CG         4.4150    1.7880   -7.4150 C.ar   64  TRP64       0.0003
    191  CD1        3.5720    2.5710   -6.7010 C.ar   64  TRP64       0.0946
    192  CD2        5.7530    2.2020   -7.0340 C.ar   64  TRP64       0.0152
    193  NE1        4.3020    3.4020   -5.8740 N.ar   64  TRP64      -0.2442
    194  CE2        5.6600    3.2160   -6.0390 C.ar   64  TRP64       0.0810
    195  CE3        7.0390    1.8270   -7.4620 C.ar   64  TRP64       0.0012
    196  CZ2        6.8000    3.8040   -5.4700 C.ar   64  TRP64       0.0191
    197  CZ3        8.1880    2.4410   -6.9340 C.ar   64  TRP64       0.0001
    198  CH2        8.0710    3.4150   -5.9250 C.ar   64  TRP64       0.0015
    199  N          7.3790   -2.3610  -10.4280 N.3    68  LEU68      -0.1245
    200  CA         7.4510   -3.5660   -9.6180 C.3    68  LEU68       0.1561
    201  C          6.9160   -4.7330  -10.4620 C.2    68  LEU68       0.2260
    202  O          6.0810   -4.5100  -11.3410 O.2    68  LEU68      -0.2867
    203  CB         6.6230   -3.3490   -8.3430 C.3    68  LEU68       0.0270
    204  CG         7.0560   -2.1340   -7.5020 C.3    68  LEU68       0.0019
    205  CD1        6.0840   -1.9580   -6.3310 C.3    68  LEU68       0.0001
    206  CD2        8.4800   -2.2550   -6.9530 C.3    68  LEU68       0.0001
    207  N          3.6240   -6.6680   -1.8600 N.3    76  VAL76      -0.1245
    208  CA         3.5220   -5.4020   -1.1570 C.3    76  VAL76       0.1561
    209  C          2.0710   -5.1440   -0.7480 C.2    76  VAL76       0.2260
    210  O          1.8180   -4.7640    0.3970 O.2    76  VAL76      -0.2867
    211  CB         4.2040   -4.2790   -1.9570 C.3    76  VAL76       0.0252
    212  CG1        3.3110   -3.4990   -2.9250 C.3    76  VAL76       0.0019
    213  CG2        4.7950   -3.2450   -0.9900 C.3    76  VAL76       0.0019
    214  N          0.9850   -4.9190    3.1880 N.3    80  VAL80      -0.1245
    215  CA         0.2170   -3.7900    3.6670 C.3    80  VAL80       0.1561
    216  C         -1.0850   -4.2810    4.3150 C.2    80  VAL80       0.2260
    217  O         -1.4330   -3.8560    5.4190 O.2    80  VAL80      -0.2867
    218  CB         0.0080   -2.8380    2.4820 C.3    80  VAL80       0.0252
    219  CG1       -1.1490   -1.8830    2.7270 C.3    80  VAL80       0.0019
    220  CG2        1.2820   -2.0240    2.2220 C.3    80  VAL80       0.0019
@<TRIPOS>BOND
     1   202   201    2
     2   188   187    2
     3   187   186    1
     4   201   200    1
     5   199   200    1
     6   185   186    1
     7   186   189    1
     8   200   203    1
     9   189   190    1
    10   180   179    1
    11   180   181    2
    12   203   204    1
    13   147   146    2
    14   179   182    1
    15   179   178    1
    16   182   183    1
    17   152   153    1
    18   146   145    1
    19   204   206    1
    20   204   205    1
    21   153   156    1
    22   153   154    1
    23   195   192   ar
    24   195   197   ar
    25   173   172    2
    26   190   192   ar
    27   190   191   ar
    28   164   163    2
    29   138   137    2
    30   192   194   ar
    31   197   198   ar
    32   161   154   am
    33   161   162    1
    34   156   157    1
    35   178   172   am
    36   178   184    1
    37   191   193   ar
    38   154   155    2
    39   172   171    1
    40   183   184    1
    41   157   158    1
    42   137   136    1
    43   137   144   am
    44   135   136    1
    45   163   162    1
    46   163   165   am
    47   145   144    1
    48   145   148    1
    49   136   139    1
    50   194   193   ar
    51   194   196   ar
    52   150   148    1
    53   198   196   ar
    54   148   149    1
    55   158   159    1
    56   170   171    1
    57   170   167   am
    58   165   166    1
    59   171   174    1
    60    18    17    2
    61   166   167    1
    62   166   169    1
    63   167   168    2
    64   139   140    1
    65   175   174    1
    66   175   176    1
    67   159   160    1
    68   130   129    2
    69   140   141    1
    70    17    19   am
    71    17    16    1
    72   177   176    1
    73   149   151    1
    74   142   141    2
    75   129   128    1
    76   141   143   am
    77    16    13    1
    78   212   211    1
    79   127   128    1
    80   128   131    1
    81    13    14    1
    82    13    12    1
    83    15    14    2
    84   211   208    1
    85   211   213    1
    86   207   208    1
    87    14    20   am
    88   131   133    1
    89   131   132    1
    90   125   124    1
    91   208   209    1
    92    25    24    1
    93   124   126    1
    94   124   123    1
    95   209   210    2
    96    36    35    1
    97    20    21    1
    98   121   122    2
    99   121   120    1
   100    60    59    1
   101    30    27    1
   102   132   134    1
   103    21    24    1
   104    21    22    1
   105   120   123    1
   106   120   119    1
   107    61    59    1
   108   111   110    2
   109    69    67    1
   110     1     2    1
   111    59    56    1
   112    35    32    1
   113    46    44   ar
   114    46    45   ar
   115    79    78   ar
   116    79    77   ar
   117   110   119   am
   118   110   109    1
   119    67    66    1
   120    22    23    2
   121     2     3    1
   122     2     5    1
   123    44    42   ar
   124    78    76   ar
   125    27    28    1
   126    27    26    1
   127     4     3    2
   128    31    28   am
   129    31    32    1
   130    28    29    2
   131    45    43   ar
   132    77    75   ar
   133    32    33    1
   134    56    57    1
   135    56    55    1
   136   220   218    1
   137    76    75   ar
   138     5     6    1
   139   109   112    1
   140   109   108    1
   141    54    52   am
   142   218   219    1
   143   218   215    1
   144    57    58    2
   145    57    62   am
   146    42    43   ar
   147    42    41    1
   148    66    68    1
   149    66    63    1
   150    75    74    1
   151   112   113    1
   152     7     6   ar
   153     7     9   ar
   154    53    52    2
   155    62    63    1
   156    33    37   am
   157    33    34    2
   158    94    92    1
   159   103   102    2
   160   214   215    1
   161     6     8   ar
   162    52    51    1
   163    37    38    1
   164   105   107    1
   165   105   104    1
   166     9    11   ar
   167   106   104    1
   168    63    64    1
   169    41    38    1
   170   215   216    1
   171    74    71    1
   172    93    92    1
   173   113   114   ar
   174   113   115   ar
   175   114   116   ar
   176    73    72    2
   177   102   101    1
   178   104   101    1
   179   101   100    1
   180    38    39    1
   181    92    91    1
   182   216   217    2
   183     8    10   ar
   184    11    10   ar
   185    51    48    1
   186    64    65    2
   187   115   117   ar
   188    98    97    2
   189    48    49    1
   190    48    47    1
   191    71    72    1
   192    71    70    1
   193    72    80   am
   194   116   118   ar
   195    49    50    2
   196    91    88    1
   197    39    40    2
   198   100    97   am
   199    88    87    1
   200    88    89    1
   201    97    96    1
   202    83    82    2
   203   117   118   ar
   204    87    82   am
   205    82    81    1
   206    80    81    1
   207    81    84    1
   208    89    90    2
   209    96    99    1
   210    96    95    1
   211    84    85    1
   212    84    86    1
