@<TRIPOS>MOLECULE
tmp/1cefA00.pdb
 166 156 0 0 0
SMALL
GASTEIGER

@<TRIPOS>ATOM
      1  N         15.3880   -9.8560   36.6290 N.3    62  SER62      -0.1217
      2  CA        14.5130   -9.4670   37.7370 C.3    62  SER62       0.1889
      3  C         13.7180   -8.1700   37.6330 C.2    62  SER62       0.2288
      4  O         12.8180   -7.9450   38.4380 O.2    62  SER62      -0.2866
      5  CB        15.2860   -9.4670   39.0520 C.3    62  SER62       0.2089
      6  OG        15.3870  -10.7950   39.5830 O.3    62  SER62      -0.2183
      7  N          9.9540   -8.2560   37.5500 N.3    65  LYS65      -0.1245
      8  CA         9.0580   -8.2730   38.7010 C.3    65  LYS65       0.1561
      9  C          8.1970   -7.0160   38.8270 C.2    65  LYS65       0.2260
     10  O          7.0740   -7.0880   39.3360 O.2    65  LYS65      -0.2867
     11  CB         9.8170   -8.5360   39.9940 C.3    65  LYS65       0.0271
     12  CG        10.3180   -9.9670   40.1390 C.3    65  LYS65       0.0035
     13  CD        11.0390  -10.1660   41.4770 C.3    65  LYS65       0.0206
     14  CE        11.4910  -11.6000   41.6680 C.3    65  LYS65       0.1093
     15  NZ        12.6160  -11.9580   40.7440 N.3    65  LYS65      -0.1314
     16  N         13.8410  -20.2310   47.5980 N.3   114  ASP114     -0.1239
     17  CA        14.1130  -19.8880   46.2160 C.3   114  ASP114      0.1674
     18  C         14.7660  -21.0800   45.5240 C.2   114  ASP114      0.2266
     19  O         15.9050  -21.4090   45.8170 O.2   114  ASP114     -0.2867
     20  CB        15.0400  -18.6910   46.1520 C.3   114  ASP114      0.1410
     21  CG        15.1240  -18.0950   44.7630 C.2   114  ASP114      0.3668
     22  OD1       14.9290  -18.8400   43.7820 O.co2 114  ASP114     -0.2456
     23  OD2       15.3790  -16.8780   44.6510 O.co2 114  ASP114     -0.2456
     24  N         16.2000  -21.3540   42.6700 N.3   116  THR116     -0.1218
     25  CA        17.4040  -21.0870   41.8740 C.3   116  THR116      0.1862
     26  C         18.6570  -21.4480   42.6490 C.2   116  THR116      0.2287
     27  O         19.7000  -21.6500   42.0550 O.2   116  THR116     -0.2866
     28  CB        17.5170  -19.6160   41.4160 C.3   116  THR116      0.1770
     29  OG1       17.3360  -18.7430   42.5420 O.3   116  THR116     -0.2211
     30  CG2       16.4780  -19.3100   40.3440 C.3   116  THR116      0.0375
     31  N         21.3400  -23.1380   40.1140 N.3   120  PHE120     -0.1241
     32  CA        22.5990  -22.4850   39.8240 C.3   120  PHE120      0.1605
     33  C         23.7010  -22.5380   40.8680 C.2   120  PHE120      0.2264
     34  O         24.4400  -21.5710   41.0210 O.2   120  PHE120     -0.2867
     35  CB        22.3330  -21.0300   39.4460 C.3   120  PHE120      0.0534
     36  CG        21.2480  -20.8620   38.4110 C.ar  120  PHE120     -0.0203
     37  CD1       21.2470  -21.6330   37.2570 C.ar  120  PHE120     -0.0042
     38  CD2       20.2070  -19.9650   38.6180 C.ar  120  PHE120     -0.0042
     39  CE1       20.2200  -21.5230   36.3200 C.ar  120  PHE120     -0.0003
     40  CE2       19.1730  -19.8400   37.6930 C.ar  120  PHE120     -0.0003
     41  CZ        19.1790  -20.6220   36.5420 C.ar  120  PHE120     -0.0000
     42  N         14.6100  -12.5340   49.6410 N.3   159  TYR159     -0.1241
     43  CA        14.3320  -12.5220   48.2080 C.3   159  TYR159      0.1605
     44  C         14.1900  -13.9530   47.6710 C.2   159  TYR159      0.2264
     45  O         15.0230  -14.8160   47.9510 O.2   159  TYR159     -0.2867
     46  CB        15.4450  -11.7680   47.4560 C.3   159  TYR159      0.0534
     47  CG        15.0430  -11.2910   46.0710 C.ar  159  TYR159     -0.0201
     48  CD1       14.8260  -12.1960   45.0330 C.ar  159  TYR159     -0.0009
     49  CD2       14.8910   -9.9350   45.7990 C.ar  159  TYR159     -0.0009
     50  CE1       14.4730  -11.7610   43.7630 C.ar  159  TYR159      0.0417
     51  CE2       14.5370   -9.4870   44.5290 C.ar  159  TYR159      0.0417
     52  CZ        14.3340  -10.4070   43.5240 C.ar  159  TYR159      0.1957
     53  OH        14.0310   -9.9730   42.2730 O.3   159  TYR159     -0.2866
     54  N         12.7260  -15.9610   43.9340 N.3   161  ASN161     -0.1240
     55  CA        12.1280  -15.9240   42.5970 C.3   161  ASN161      0.1653
     56  C         10.7430  -16.5620   42.6040 C.2   161  ASN161      0.2266
     57  O          9.8280  -16.1320   41.9050 O.2   161  ASN161     -0.2867
     58  CB        13.0230  -16.6450   41.5820 C.3   161  ASN161      0.1155
     59  CG        14.2370  -15.8210   41.1800 C.2   161  ASN161      0.2627
     60  OD1       14.1090  -14.7680   40.5740 O.2   161  ASN161     -0.2716
     61  ND2       15.4250  -16.3040   41.5220 N.am  161  ASN161     -0.0877
     62  N         12.9490  -20.8030   33.5880 N.3   233  TRP233     -0.1241
     63  CA        13.1460  -21.0170   35.0120 C.3   233  TRP233      0.1605
     64  C         12.7320  -19.7670   35.8050 C.2   233  TRP233      0.2264
     65  O         12.5520  -19.8280   37.0280 O.2   233  TRP233     -0.2867
     66  CB        14.6120  -21.3730   35.2750 C.3   233  TRP233      0.0550
     67  CG        15.5570  -20.3270   34.8120 C.ar  233  TRP233      0.0003
     68  CD1       16.2090  -20.2830   33.6070 C.ar  233  TRP233      0.0946
     69  CD2       15.9170  -19.1270   35.5120 C.ar  233  TRP233      0.0152
     70  NE1       16.9530  -19.1190   33.5190 N.ar  233  TRP233     -0.2442
     71  CE2       16.7900  -18.3960   34.6720 C.ar  233  TRP233      0.0810
     72  CE3       15.5900  -18.5990   36.7690 C.ar  233  TRP233      0.0012
     73  CZ2       17.3330  -17.1690   35.0450 C.ar  233  TRP233      0.0191
     74  CZ3       16.1330  -17.3680   37.1410 C.ar  233  TRP233      0.0001
     75  CH2       16.9970  -16.6730   36.2830 C.ar  233  TRP233      0.0015
     76  N          9.1530  -13.8840   36.7910 N.3   237  ALA237     -0.1245
     77  CA        10.1530  -13.3870   37.7360 C.3   237  ALA237      0.1562
     78  C         11.3590  -12.7900   36.9980 C.2   237  ALA237      0.2260
     79  O         12.1700  -12.1230   37.6160 O.2   237  ALA237     -0.2867
     80  CB        10.6230  -14.5170   38.6570 C.3   237  ALA237      0.0290
     81  N         12.2210   -1.7550   44.2270 N.3   285  ARG285     -0.1245
     82  CA        13.3270   -1.5140   45.1660 C.3   285  ARG285      0.1563
     83  C         13.5220   -0.0170   45.3800 C.2   285  ARG285      0.2260
     84  O         13.1760    0.7950   44.5250 O.2   285  ARG285     -0.2867
     85  CB        14.6660   -2.0460   44.6320 C.3   285  ARG285      0.0307
     86  CG        14.8120   -3.5370   44.4570 C.3   285  ARG285      0.0489
     87  CD        16.2820   -3.8640   44.1240 C.3   285  ARG285      0.2205
     88  NE        16.5850   -5.2910   44.0760 N.pl3 285  ARG285     -0.0865
     89  CZ        16.6790   -6.0870   45.1390 C.cat 285  ARG285      0.5346
     90  NH1       16.4850   -5.6240   46.3660 N.pl3 285  ARG285      0.1354
     91  NH2       17.0230   -7.3560   44.9680 N.pl3 285  ARG285      0.1354
     92  N         14.3880   -1.1520   39.8940 N.3   298  HIS298     -0.1226
     93  CA        14.7630   -2.5490   40.1090 C.3   298  HIS298      0.1752
     94  C         16.0620   -2.9240   39.3630 C.2   298  HIS298      0.2596
     95  O         16.4870   -2.2550   38.4100 O.2   298  HIS298     -0.2718
     96  CB        13.6220   -3.4730   39.6610 C.3   298  HIS298      0.0759
     97  CG        13.3800   -4.6420   40.5690 C.ar  298  HIS298      0.0818
     98  ND1       14.1520   -5.7840   40.5440 N.ar  298  HIS298     -0.2268
     99  CD2       12.4350   -4.8510   41.5180 C.ar  298  HIS298      0.1154
    100  CE1       13.6970   -6.6430   41.4390 C.ar  298  HIS298      0.1986
    101  NE2       12.6540   -6.1020   42.0430 N.ar  298  HIS298     -0.2212
    102  N         16.7510   -3.9220   39.8960 N.am  299  THR299     -0.1953
    103  CA        17.9660   -4.4190   39.2860 C.3   299  THR299      0.1897
    104  C         17.5820   -5.7470   38.6580 C.2   299  THR299      0.2313
    105  O         16.5050   -6.3150   38.9450 O.2   299  THR299     -0.2863
    106  CB        19.0780   -4.6360   40.3320 C.3   299  THR299      0.1794
    107  OG1       18.5300   -5.2880   41.4800 O.3   299  THR299     -0.2208
    108  CG2       19.6570   -3.3270   40.7540 C.3   299  THR299      0.0378
    109  N         19.5010   -9.4530   37.0810 N.3   301  THR301     -0.1203
    110  CA        20.6480  -10.2790   36.8080 C.3   301  THR301      0.1994
    111  C         20.0220  -11.5380   36.2090 C.2   301  THR301      0.2618
    112  O         18.9960  -12.0380   36.6930 O.2   301  THR301     -0.2717
    113  CB        21.4330  -10.6040   38.1150 C.3   301  THR301      0.1784
    114  OG1       20.5350  -11.1150   39.1070 O.3   301  THR301     -0.2211
    115  CG2       22.0740   -9.3320   38.6960 C.3   301  THR301      0.0376
    116  N         20.5330  -11.9400   35.0640 N.am  302  VAL302     -0.1965
    117  CA        20.0790  -13.1360   34.3840 C.3   302  VAL302      0.1727
    118  C         21.3940  -13.4850   33.6780 C.2   302  VAL302      0.2616
    119  O         22.2710  -12.6240   33.5880 O.2   302  VAL302     -0.2715
    120  CB        18.8660  -12.8290   33.4400 C.3   302  VAL302      0.0290
    121  CG1       19.3090  -12.4780   32.0380 C.3   302  VAL302      0.0023
    122  CG2       17.8700  -13.9840   33.4540 C.3   302  VAL302      0.0023
    123  N         21.5870  -14.7260   33.2500 N.am  303  GLN303     -0.1977
    124  CA        22.8590  -15.0770   32.6240 C.3   303  GLN303      0.1601
    125  C         23.3150  -14.1620   31.5020 C.2   303  GLN303      0.2287
    126  O         22.6900  -14.0810   30.4570 O.2   303  GLN303     -0.2864
    127  CB        22.8820  -16.5280   32.1440 C.3   303  GLN303      0.0394
    128  CG        22.8080  -17.5640   33.2470 C.3   303  GLN303      0.0908
    129  CD        21.3880  -17.9410   33.5930 C.2   303  GLN303      0.2608
    130  OE1       20.4480  -17.2820   33.1710 O.2   303  GLN303     -0.2717
    131  NE2       21.2240  -19.0120   34.3590 N.am  303  GLN303     -0.0878
    132  N         23.5800   -7.6100   33.3600 N.3   306  TYR306     -0.1241
    133  CA        23.4440   -6.9320   34.6470 C.3   306  TYR306      0.1605
    134  C         22.6990   -5.6390   34.3180 C.2   306  TYR306      0.2264
    135  O         23.2210   -4.8080   33.5740 O.2   306  TYR306     -0.2867
    136  CB        24.8250   -6.5750   35.2220 C.3   306  TYR306      0.0534
    137  CG        25.4950   -7.6300   36.0920 C.ar  306  TYR306     -0.0201
    138  CD1       24.7400   -8.5020   36.8800 C.ar  306  TYR306     -0.0009
    139  CD2       26.8950   -7.7010   36.1870 C.ar  306  TYR306     -0.0009
    140  CE1       25.3480   -9.4050   37.7390 C.ar  306  TYR306      0.0417
    141  CE2       27.5220   -8.6140   37.0560 C.ar  306  TYR306      0.0417
    142  CZ        26.7340   -9.4540   37.8300 C.ar  306  TYR306      0.1957
    143  OH        27.3050  -10.3100   38.7420 O.3   306  TYR306     -0.2866
    144  N         27.7350  -12.9120   36.8410 N.3   327  ASN327     -0.1240
    145  CA        28.6150  -13.7340   37.6870 C.3   327  ASN327      0.1653
    146  C         30.0160  -13.1160   37.7910 C.2   327  ASN327      0.2266
    147  O         31.0450  -13.7940   37.7420 O.2   327  ASN327     -0.2867
    148  CB        28.6960  -15.1890   37.2190 C.3   327  ASN327      0.1155
    149  CG        29.3130  -16.0950   38.2770 C.2   327  ASN327      0.2627
    150  OD1       29.2240  -15.8250   39.4740 O.2   327  ASN327     -0.2716
    151  ND2       29.9520  -17.1570   37.8430 N.am  327  ASN327     -0.0877
    152  N         31.1460  -10.1630   40.3720 N.3   329  VAL329     -0.1245
    153  CA        30.7690   -9.1880   41.3890 C.3   329  VAL329      0.1561
    154  C         31.4650   -7.8290   41.2280 C.2   329  VAL329      0.2260
    155  O         30.9010   -6.7890   41.6050 O.2   329  VAL329     -0.2867
    156  CB        30.8950   -9.7490   42.8480 C.3   329  VAL329      0.0252
    157  CG1       29.9730  -10.9540   43.0210 C.3   329  VAL329      0.0019
    158  CG2       32.3370  -10.1260   43.1750 C.3   329  VAL329      0.0019
    159  N         29.2980   -5.9650   38.8000 N.3   332  LEU332     -0.1245
    160  CA        28.0330   -5.6720   39.4710 C.3   332  LEU332      0.1561
    161  C         28.1350   -4.4320   40.3820 C.2   332  LEU332      0.2260
    162  O         27.3320   -3.5040   40.2700 O.2   332  LEU332     -0.2867
    163  CB        27.5910   -6.8970   40.2760 C.3   332  LEU332      0.0270
    164  CG        26.1020   -7.1300   40.5770 C.3   332  LEU332      0.0019
    165  CD1       25.8390   -6.8990   42.0350 C.3   332  LEU332      0.0001
    166  CD2       25.2000   -6.2810   39.6990 C.3   332  LEU332      0.0001
@<TRIPOS>BOND
     1   126   125    2
     2   125   124    1
     3   121   120    1
     4   127   124    1
     5   127   128    1
     6   124   123    1
     7   130   129    2
     8   128   129    1
     9   123   118   am
    10   132   133    1
    11   120   122    1
    12   120   117    1
    13    70    68   ar
    14    70    71   ar
    15   135   134    2
    16    62    63    1
    17   119   118    2
    18   129   131   am
    19    68    67   ar
    20   118   117    1
    21   134   133    1
    22   117   116    1
    23   133   136    1
    24    71    73   ar
    25    71    69   ar
    26    67    66    1
    27    67    69   ar
    28    63    66    1
    29    63    64    1
    30    73    75   ar
    31   116   111   am
    32   136   137    1
    33    69    72   ar
    34    64    65    2
    35   137   139   ar
    36   137   138   ar
    37   139   141   ar
    38   111   112    2
    39   111   110    1
    40    75    74   ar
    41    39    41   ar
    42    39    37   ar
    43    41    40   ar
    44     1     2    1
    45    72    74   ar
    46    76    77    1
    47   110   109    1
    48   110   113    1
    49   144   145    1
    50   138   140   ar
    51    78    79    2
    52    78    77    1
    53   141   142   ar
    54   148   145    1
    55   148   149    1
    56    37    36   ar
    57     7     8    1
    58     3     2    1
    59     3     4    2
    60   145   146    1
    61    40    38   ar
    62    77    80    1
    63     2     5    1
    64   140   142   ar
    65   147   146    2
    66   142   143    1
    67   151   149   am
    68   113   115    1
    69   113   114    1
    70   149   150    2
    71    95    94    2
    72    36    38   ar
    73    36    35    1
    74   104   105    2
    75   104   103    1
    76     8     9    1
    77     8    11    1
    78   159   160    1
    79     9    10    2
    80     5     6    1
    81   103   102    1
    82   103   106    1
    83    94   102   am
    84    94    93    1
    85    35    32    1
    86   160   163    1
    87   160   161    1
    88    96    93    1
    89    96    97    1
    90   166   164    1
    91    32    31    1
    92    32    33    1
    93    92    93    1
    94    11    12    1
    95    12    13    1
    96   162   161    2
    97   163   164    1
    98   106   108    1
    99   106   107    1
   100    30    28    1
   101   152   153    1
   102    98    97   ar
   103    98   100   ar
   104    97    99   ar
   105    60    59    2
   106   164   165    1
   107    15    14    1
   108    33    34    2
   109    59    61   am
   110    59    58    1
   111   154   153    1
   112   154   155    2
   113   153   156    1
   114    28    25    1
   115    28    29    1
   116   100   101   ar
   117    13    14    1
   118    99   101   ar
   119    58    55    1
   120    25    26    1
   121    25    24    1
   122    57    56    2
   123    27    26    2
   124    53    52    1
   125    55    56    1
   126    55    54    1
   127   156   157    1
   128   156   158    1
   129    52    50   ar
   130    52    51   ar
   131    50    48   ar
   132    22    21   ar
   133    88    87    1
   134    88    89    2
   135    87    86    1
   136    81    82    1
   137    86    85    1
   138    84    83    2
   139    51    49   ar
   140    85    82    1
   141    23    21   ar
   142    21    20    1
   143    91    89    1
   144    48    47   ar
   145    89    90    1
   146    82    83    1
   147    18    19    2
   148    18    17    1
   149    49    47   ar
   150    47    46    1
   151    20    17    1
   152    17    16    1
   153    46    43    1
   154    44    45    2
   155    44    43    1
   156    43    42    1
