@<TRIPOS>MOLECULE
tmp/1cegA00.pdb
 149 141 0 0 0
SMALL
GASTEIGER

@<TRIPOS>ATOM
      1  N         15.3500   -9.6940   36.1460 N.3    62  SER62      -0.1217
      2  CA        14.4660   -9.3420   37.2660 C.3    62  SER62       0.1889
      3  C         13.6490   -8.0840   37.1860 C.2    62  SER62       0.2288
      4  O         12.7060   -7.9190   37.9770 O.2    62  SER62      -0.2866
      5  CB        15.2250   -9.3140   38.5820 C.3    62  SER62       0.2089
      6  OG        15.2250  -10.5930   39.0980 O.3    62  SER62      -0.2183
      7  N          9.9670   -8.2910   37.1980 N.3    65  LYS65      -0.1245
      8  CA         9.1220   -8.3000   38.3910 C.3    65  LYS65       0.1561
      9  C          8.2540   -7.0580   38.5110 C.2    65  LYS65       0.2260
     10  O          7.1100   -7.1500   38.9590 O.2    65  LYS65      -0.2867
     11  CB         9.9380   -8.5100   39.6590 C.3    65  LYS65       0.0271
     12  CG        10.4620   -9.9070   39.7550 C.3    65  LYS65       0.0035
     13  CD        11.0520  -10.1580   41.1230 C.3    65  LYS65       0.0206
     14  CE        11.5860  -11.5570   41.1840 C.3    65  LYS65       0.1093
     15  NZ        12.6180  -11.7930   40.1260 N.3    65  LYS65      -0.1314
     16  N         13.7360  -20.2300   47.2200 N.3   114  ASP114     -0.1239
     17  CA        14.0360  -19.8630   45.8450 C.3   114  ASP114      0.1674
     18  C         14.6690  -21.0520   45.1140 C.2   114  ASP114      0.2266
     19  O         15.8430  -21.3750   45.3460 O.2   114  ASP114     -0.2867
     20  CB        14.9790  -18.6700   45.7990 C.3   114  ASP114      0.1410
     21  CG        15.0640  -18.0560   44.4130 C.2   114  ASP114      0.3668
     22  OD1       14.7850  -18.7690   43.4200 O.co2 114  ASP114     -0.2456
     23  OD2       15.3840  -16.8550   44.3060 O.co2 114  ASP114     -0.2456
     24  N         16.0330  -21.3190   42.2570 N.3   116  THR116     -0.1218
     25  CA        17.2430  -21.0510   41.4820 C.3   116  THR116      0.1862
     26  C         18.5120  -21.3780   42.2810 C.2   116  THR116      0.2287
     27  O         19.5690  -21.5820   41.6890 O.2   116  THR116     -0.2866
     28  CB        17.3020  -19.6090   40.9230 C.3   116  THR116      0.1770
     29  OG1       17.2060  -18.6640   41.9940 O.3   116  THR116     -0.2211
     30  CG2       16.1390  -19.3680   39.9500 C.3   116  THR116      0.0375
     31  N         21.1140  -23.1000   39.8200 N.3   120  PHE120     -0.1241
     32  CA        22.3740  -22.4710   39.5000 C.3   120  PHE120      0.1605
     33  C         23.4710  -22.5260   40.5260 C.2   120  PHE120      0.2264
     34  O         24.2660  -21.5750   40.6260 O.2   120  PHE120     -0.2867
     35  CB        22.1160  -21.0270   39.0640 C.3   120  PHE120      0.0534
     36  CG        21.0690  -20.9130   38.0020 C.ar  120  PHE120     -0.0203
     37  CD1       21.1860  -21.6410   36.8170 C.ar  120  PHE120     -0.0042
     38  CD2       19.9210  -20.1610   38.2180 C.ar  120  PHE120     -0.0042
     39  CE1       20.1750  -21.6290   35.8690 C.ar  120  PHE120     -0.0003
     40  CE2       18.9080  -20.1420   37.2790 C.ar  120  PHE120     -0.0003
     41  CZ        19.0360  -20.8840   36.0940 C.ar  120  PHE120     -0.0000
     42  N         12.0560  -10.3070   54.8990 N.3   157  TYR157     -0.1241
     43  CA        12.3600  -10.2170   53.4840 C.3   157  TYR157      0.1605
     44  C         13.3840  -11.2870   53.1020 C.2   157  TYR157      0.2264
     45  O         14.3940  -11.4650   53.7670 O.2   157  TYR157     -0.2867
     46  CB        12.9040   -8.8300   53.1420 C.3   157  TYR157      0.0534
     47  CG        13.5120   -8.7230   51.7550 C.ar  157  TYR157     -0.0201
     48  CD1       12.7370   -8.4030   50.6400 C.ar  157  TYR157     -0.0009
     49  CD2       14.8770   -8.9330   51.5580 C.ar  157  TYR157     -0.0009
     50  CE1       13.3110   -8.2940   49.3740 C.ar  157  TYR157      0.0417
     51  CE2       15.4510   -8.8290   50.3060 C.ar  157  TYR157      0.0417
     52  CZ        14.6680   -8.5080   49.2210 C.ar  157  TYR157      0.1957
     53  OH        15.2850   -8.3700   48.0020 O.3   157  TYR157     -0.2866
     54  N         14.6010  -12.5880   49.1760 N.3   159  TYR159     -0.1241
     55  CA        14.3450  -12.5970   47.7390 C.3   159  TYR159      0.1605
     56  C         14.1750  -14.0060   47.1950 C.2   159  TYR159      0.2264
     57  O         14.9880  -14.8810   47.4350 O.2   159  TYR159     -0.2867
     58  CB        15.4500  -11.8670   46.9670 C.3   159  TYR159      0.0534
     59  CG        15.0390  -11.4260   45.5740 C.ar  159  TYR159     -0.0201
     60  CD1       15.1300  -12.2940   44.4880 C.ar  159  TYR159     -0.0009
     61  CD2       14.5860  -10.1240   45.3420 C.ar  159  TYR159     -0.0009
     62  CE1       14.7860  -11.8780   43.2030 C.ar  159  TYR159      0.0417
     63  CE2       14.2360   -9.6950   44.0630 C.ar  159  TYR159      0.0417
     64  CZ        14.3430  -10.5800   43.0070 C.ar  159  TYR159      0.1957
     65  OH        14.0130  -10.1430   41.7640 O.3   159  TYR159     -0.2866
     66  N         12.6870  -15.9540   43.4960 N.3   161  ASN161     -0.1240
     67  CA        12.0420  -15.9330   42.1880 C.3   161  ASN161      0.1653
     68  C         10.6760  -16.6330   42.2350 C.2   161  ASN161      0.2266
     69  O          9.7620  -16.2920   41.4880 O.2   161  ASN161     -0.2867
     70  CB        12.9420  -16.5860   41.1360 C.3   161  ASN161      0.1155
     71  CG        14.0310  -15.6530   40.6510 C.2   161  ASN161      0.2627
     72  OD1       13.7680  -14.6120   40.0520 O.2   161  ASN161     -0.2716
     73  ND2       15.2700  -16.0150   40.9200 N.am  161  ASN161     -0.0877
     74  N         12.9010  -20.7740   33.0410 N.3   233  TRP233     -0.1241
     75  CA        13.1100  -20.9420   34.4700 C.3   233  TRP233      0.1605
     76  C         12.6550  -19.7140   35.2550 C.2   233  TRP233      0.2264
     77  O         12.5090  -19.7920   36.4660 O.2   233  TRP233     -0.2867
     78  CB        14.5900  -21.2500   34.7700 C.3   233  TRP233      0.0550
     79  CG        15.5290  -20.2070   34.2910 C.ar  233  TRP233      0.0003
     80  CD1       16.1170  -20.1290   33.0500 C.ar  233  TRP233      0.0946
     81  CD2       15.9470  -19.0340   35.0020 C.ar  233  TRP233      0.0152
     82  NE1       16.8610  -18.9750   32.9500 N.ar  233  TRP233     -0.2442
     83  CE2       16.7720  -18.2850   34.1380 C.ar  233  TRP233      0.0810
     84  CE3       15.6960  -18.5470   36.3000 C.ar  233  TRP233      0.0012
     85  CZ2       17.3470  -17.0770   34.5090 C.ar  233  TRP233      0.0191
     86  CZ3       16.2780  -17.3280   36.6790 C.ar  233  TRP233      0.0001
     87  CH2       17.0950  -16.6100   35.7810 C.ar  233  TRP233      0.0015
     88  N          9.0170  -13.8080   36.3440 N.3   237  ALA237     -0.1231
     89  CA        10.0240  -13.3320   37.2910 C.3   237  ALA237      0.1697
     90  C         11.2200  -12.7310   36.5480 C.2   237  ALA237      0.2631
     91  O         12.0170  -12.0060   37.1410 O.2   237  ALA237     -0.2714
     92  CB        10.4950  -14.4690   38.1800 C.3   237  ALA237      0.0304
     93  N         11.3350  -12.9820   35.2450 N.am  238  GLY238     -0.1732
     94  CA        12.4760  -12.4200   34.5410 C.2   238  GLY238      0.1340
     95  C         12.6850  -12.6220   33.0470 C.2   238  GLY238      0.2521
     96  O         13.8250  -12.4720   32.6060 O.2   238  GLY238     -0.2816
     97  N         12.1060   -1.8070   43.8860 N.3   285  ARG285     -0.1245
     98  CA        13.2030   -1.5540   44.8180 C.3   285  ARG285      0.1563
     99  C         13.4210   -0.0670   45.0290 C.2   285  ARG285      0.2260
    100  O         13.1790    0.7680   44.1320 O.2   285  ARG285     -0.2867
    101  CB        14.5390   -2.1100   44.3000 C.3   285  ARG285      0.0307
    102  CG        14.5730   -3.5940   44.0270 C.3   285  ARG285      0.0489
    103  CD        16.0070   -4.0290   43.7420 C.3   285  ARG285      0.2205
    104  NE        16.1770   -5.4740   43.7900 N.pl3 285  ARG285     -0.0865
    105  CZ        16.3280   -6.1820   44.9080 C.cat 285  ARG285      0.5346
    106  NH1       16.3160   -5.6040   46.1010 N.pl3 285  ARG285      0.1354
    107  NH2       16.5790   -7.4770   44.8180 N.pl3 285  ARG285      0.1354
    108  N         16.6200   -3.8620   39.5820 N.3   299  THR299     -0.1203
    109  CA        17.8770   -4.3590   39.0210 C.3   299  THR299      0.1994
    110  C         17.5040   -5.7000   38.3730 C.2   299  THR299      0.2618
    111  O         16.4550   -6.2920   38.6880 O.2   299  THR299     -0.2717
    112  CB        18.9350   -4.6450   40.1120 C.3   299  THR299      0.1784
    113  OG1       18.3370   -5.3950   41.1700 O.3   299  THR299     -0.2211
    114  CG2       19.5180   -3.3450   40.6900 C.3   299  THR299      0.0376
    115  N         18.3280   -6.1660   37.4500 N.am  300  GLY300     -0.1942
    116  CA        18.0420   -7.4240   36.8050 C.3   300  GLY300      0.2014
    117  C         19.3240   -8.1400   36.4930 C.2   300  GLY300      0.2640
    118  O         20.3370   -7.5140   36.1670 O.2   300  GLY300     -0.2714
    119  N         19.3070   -9.4410   36.7370 N.am  301  THR301     -0.1936
    120  CA        20.4310  -10.3060   36.4550 C.3   301  THR301      0.2028
    121  C         19.8500  -11.5360   35.7680 C.2   301  THR301      0.2642
    122  O         18.9370  -12.1870   36.2920 O.2   301  THR301     -0.2714
    123  CB        21.1070  -10.7910   37.7420 C.3   301  THR301      0.1808
    124  OG1       21.6140   -9.6680   38.4740 O.3   301  THR301     -0.2208
    125  CG2       22.2340  -11.7560   37.4130 C.3   301  THR301      0.0379
    126  N         20.2660  -11.7850   34.5500 N.am  302  VAL302     -0.1963
    127  CA        19.8130  -12.9760   33.8480 C.3   302  VAL302      0.1727
    128  C         21.1380  -13.3720   33.2150 C.2   302  VAL302      0.2616
    129  O         22.0550  -12.5550   33.1860 O.2   302  VAL302     -0.2715
    130  CB        18.6320  -12.6850   32.8490 C.3   302  VAL302      0.0290
    131  CG1       19.0480  -11.7190   31.7500 C.3   302  VAL302      0.0023
    132  CG2       18.1130  -13.9770   32.2740 C.3   302  VAL302      0.0023
    133  N         21.3110  -14.6230   32.8150 N.am  303  GLN303     -0.1977
    134  CA        22.6100  -15.0250   32.2690 C.3   303  GLN303      0.1601
    135  C         23.1250  -14.1160   31.1520 C.2   303  GLN303      0.2287
    136  O         22.4970  -13.9750   30.1230 O.2   303  GLN303     -0.2864
    137  CB        22.5970  -16.4860   31.8150 C.3   303  GLN303      0.0394
    138  CG        22.4790  -17.5010   32.9620 C.3   303  GLN303      0.0908
    139  CD        21.0440  -17.7780   33.3410 C.2   303  GLN303      0.2608
    140  OE1       20.1200  -17.1500   32.8250 O.2   303  GLN303     -0.2717
    141  NE2       20.8480  -18.7320   34.2350 N.am  303  GLN303     -0.0878
    142  N         29.1300   -5.8860   38.4660 N.3   332  LEU332     -0.1245
    143  CA        27.8540   -5.6140   39.1220 C.3   332  LEU332      0.1561
    144  C         27.9530   -4.3770   40.0350 C.2   332  LEU332      0.2260
    145  O         27.1480   -3.4570   39.9220 O.2   332  LEU332     -0.2867
    146  CB        27.4300   -6.8280   39.9460 C.3   332  LEU332      0.0270
    147  CG        25.9370   -7.1620   40.0800 C.3   332  LEU332      0.0019
    148  CD1       25.6590   -7.6080   41.5080 C.3   332  LEU332      0.0001
    149  CD2       25.0460   -6.0120   39.6780 C.3   332  LEU332      0.0001
@<TRIPOS>BOND
     1   136   135    2
     2   135   134    1
     3   131   130    1
     4   137   134    1
     5   137   138    1
     6   134   133    1
     7   132   130    1
     8    96    95    2
     9   133   128   am
    10   140   139    2
    11   130   127    1
    12    82    80   ar
    13    82    83   ar
    14   138   139    1
    15    74    75    1
    16    95    94    1
    17    80    79   ar
    18   129   128    2
    19   128   127    1
    20   139   141   am
    21   127   126    1
    22    83    85   ar
    23    83    81   ar
    24    79    78    1
    25    79    81   ar
    26    75    78    1
    27    75    76    1
    28    85    87   ar
    29    94    93    2
    30   126   121   am
    31    81    84   ar
    32    93    90    1
    33    76    77    2
    34   121   122    2
    35   121   120    1
    36    87    86   ar
    37    39    41   ar
    38    39    37   ar
    39    41    40   ar
    40     1     2    1
    41   118   117    2
    42    84    86   ar
    43    88    89    1
    44   120   119    1
    45   120   123    1
    46   117   119   am
    47   117   116    1
    48    90    91    2
    49    90    89    1
    50   116   115    1
    51    37    36   ar
    52     3     2    1
    53     3     4    2
    54     7     8    1
    55     2     5    1
    56    40    38   ar
    57    89    92    1
    58   125   123    1
    59   115   110   am
    60   123   124    1
    61    36    38   ar
    62    36    35    1
    63   110   111    2
    64   110   109    1
    65     8     9    1
    66     8    11    1
    67   142   143    1
    68     9    10    2
    69     5     6    1
    70   109   108    1
    71   109   112    1
    72    35    32    1
    73   143   146    1
    74   143   144    1
    75    32    31    1
    76    32    33    1
    77    11    12    1
    78   149   147    1
    79    12    13    1
    80   145   144    2
    81   146   147    1
    82    30    28    1
    83    72    71    2
    84   147   148    1
    85   112   114    1
    86   112   113    1
    87    15    14    1
    88    33    34    2
    89    71    73   am
    90    71    70    1
    91    28    25    1
    92    28    29    1
    93    13    14    1
    94    70    67    1
    95    25    24    1
    96    25    26    1
    97    69    68    2
    98    27    26    2
    99    65    64    1
   100    67    68    1
   101    67    66    1
   102    64    62   ar
   103    64    63   ar
   104    62    60   ar
   105    22    21   ar
   106   103   104    1
   107   103   102    1
   108   104   105    2
   109    97    98    1
   110   102   101    1
   111    63    61   ar
   112   100    99    2
   113   101    98    1
   114    23    21   ar
   115    21    20    1
   116    60    59   ar
   117   107   105    1
   118    98    99    1
   119   105   106    1
   120    18    19    2
   121    18    17    1
   122    61    59   ar
   123    59    58    1
   124    20    17    1
   125    17    16    1
   126    58    55    1
   127    56    57    2
   128    56    55    1
   129    55    54    1
   130    53    52    1
   131    52    50   ar
   132    52    51   ar
   133    50    48   ar
   134    51    49   ar
   135    48    47   ar
   136    49    47   ar
   137    47    46    1
   138    44    43    1
   139    44    45    2
   140    46    43    1
   141    43    42    1
