@<TRIPOS>MOLECULE
tmp/1celB02.pdb
 126 123 0 0 0
SMALL
GASTEIGER

@<TRIPOS>ATOM
      1  N         -9.7310   11.2440    3.5440 N.3   174  GLN174     -0.1245
      2  CA       -11.0110   10.8650    2.9520 C.3   174  GLN174      0.1566
      3  C        -10.7660   10.1190    1.6280 C.2   174  GLN174      0.2260
      4  O        -11.7150    9.5390    1.0910 O.2   174  GLN174     -0.2867
      5  CB       -11.8730   12.0960    2.6390 C.3   174  GLN174      0.0367
      6  CG       -12.2810   12.9340    3.8280 C.3   174  GLN174      0.0905
      7  CD       -12.9440   12.1140    4.9120 C.2   174  GLN174      0.2608
      8  OE1      -13.8840   11.3570    4.6510 O.2   174  GLN174     -0.2717
      9  NE2      -12.4430   12.2400    6.1370 N.am  174  GLN174     -0.0878
     10  N         -5.9690   11.9790   11.7360 N.3   227  HIS227     -0.1241
     11  CA        -6.3810   10.8200   10.8950 C.3   227  HIS227      0.1621
     12  C         -5.2080   10.0180   10.3610 C.2   227  HIS227      0.2264
     13  O         -4.5490   10.4500    9.4110 O.2   227  HIS227     -0.2867
     14  CB        -7.1160   11.2260    9.6090 C.3   227  HIS227      0.0745
     15  CG        -8.3400   12.0510    9.8200 C.ar  227  HIS227      0.0817
     16  ND1       -9.6180   11.5410    9.6870 N.ar  227  HIS227     -0.2268
     17  CD2       -8.4850   13.3670   10.0940 C.ar  227  HIS227      0.1154
     18  CE1      -10.4930   12.5120    9.8760 C.ar  227  HIS227      0.1986
     19  NE2       -9.8320   13.6280   10.1250 N.ar  227  HIS227     -0.2212
     20  N        -16.3070    8.4520    2.2430 N.3   245  THR245     -0.1218
     21  CA       -17.7030    8.7870    2.0050 C.3   245  THR245      0.1862
     22  C        -18.4160    8.2020    0.7800 C.2   245  THR245      0.2287
     23  O        -19.4980    7.6180    0.9050 O.2   245  THR245     -0.2866
     24  CB       -17.8080   10.3230    2.0590 C.3   245  THR245      0.1770
     25  OG1      -17.7130   10.7260    3.4280 O.3   245  THR245     -0.2211
     26  CG2      -19.0870   10.8610    1.4470 C.3   245  THR245      0.0375
     27  N        -17.0220    2.1950    3.9500 N.3   250  ARG250     -0.1231
     28  CA       -16.3900    3.4080    4.4410 C.3   250  ARG250      0.1694
     29  C        -15.0570    3.1110    5.1120 C.2   250  ARG250      0.2592
     30  O        -14.1000    3.8600    4.9540 O.2   250  ARG250     -0.2718
     31  CB       -17.3320    4.1030    5.4350 C.3   250  ARG250      0.0321
     32  CG       -16.8100    5.4160    5.9750 C.3   250  ARG250      0.0489
     33  CD       -17.7510    6.0740    6.9650 C.3   250  ARG250      0.2205
     34  NE       -17.0910    7.2250    7.5780 N.pl3 250  ARG250     -0.0865
     35  CZ       -17.0230    8.4400    7.0410 C.cat 250  ARG250      0.5346
     36  NH1      -17.6190    8.7040    5.8850 N.pl3 250  ARG250      0.1354
     37  NH2      -16.3800    9.4060    7.6820 N.pl3 250  ARG250      0.1354
     38  N        -14.9810    1.9790    5.8020 N.am  251  TYR251     -0.1976
     39  CA       -13.7700    1.6050    6.5160 C.3   251  TYR251      0.1639
     40  C        -12.8980    0.5730    5.8190 C.2   251  TYR251      0.2290
     41  O        -11.9370    0.0690    6.4080 O.2   251  TYR251     -0.2864
     42  CB       -14.1400    1.1400    7.9170 C.3   251  TYR251      0.0560
     43  CG       -15.0130    2.1460    8.6180 C.ar  251  TYR251     -0.0198
     44  CD1      -14.5070    3.3860    8.9810 C.ar  251  TYR251     -0.0009
     45  CD2      -16.3510    1.8760    8.8650 C.ar  251  TYR251     -0.0009
     46  CE1      -15.3120    4.3340    9.5700 C.ar  251  TYR251      0.0417
     47  CE2      -17.1620    2.8170    9.4530 C.ar  251  TYR251      0.0417
     48  CZ       -16.6400    4.0420    9.8040 C.ar  251  TYR251      0.1957
     49  OH       -17.4580    4.9700   10.3950 O.3   251  TYR251     -0.2866
     50  N        -11.2050    7.6450    7.8640 N.3   257  PRO257     -0.2102
     51  CA       -11.9980    8.8370    7.5110 C.3   257  PRO257      0.1504
     52  C        -12.6760    9.5670    8.6920 C.2   257  PRO257      0.2575
     53  O        -13.0530   10.7370    8.5840 O.2   257  PRO257     -0.2718
     54  CB       -13.0260    8.2760    6.5210 C.3   257  PRO257      0.0282
     55  CG       -13.2860    6.9060    7.0600 C.3   257  PRO257      0.0208
     56  CD       -11.9130    6.4050    7.4840 C.3   257  PRO257      0.0893
     57  N        -12.7750    8.9040    9.8380 N.am  258  ASP258     -0.1974
     58  CA       -13.4190    9.5050   11.0060 C.3   258  ASP258      0.1708
     59  C        -12.4870   10.3280   11.9010 C.2   258  ASP258      0.2293
     60  O        -12.8120   11.4600   12.2670 O.2   258  ASP258     -0.2864
     61  CB       -14.0850    8.4270   11.8540 C.3   258  ASP258      0.1436
     62  CG       -15.2030    7.6820   11.1250 C.2   258  ASP258      0.3671
     63  OD1      -15.5270    7.9570    9.9410 O.co2 258  ASP258     -0.2456
     64  OD2      -15.7740    6.7890   11.7690 O.co2 258  ASP258     -0.2456
     65  N        -20.9750   21.2770    2.7100 N.3   368  ASP368     -0.1239
     66  CA       -20.9780   19.8330    2.5940 C.3   368  ASP368      0.1674
     67  C        -22.1710   19.2200    1.8480 C.2   368  ASP368      0.2266
     68  O        -23.2800   19.1570    2.3750 O.2   368  ASP368     -0.2867
     69  CB       -20.8370   19.3560    4.0480 C.3   368  ASP368      0.1410
     70  CG       -20.8530   17.8480    4.2390 C.2   368  ASP368      0.3668
     71  OD1      -20.7550   17.0470    3.2780 O.co2 368  ASP368     -0.2456
     72  OD2      -20.9490   17.4590    5.4200 O.co2 368  ASP368     -0.2456
     73  N        -22.5180   16.1020    1.0690 N.3   370  TYR370     -0.1227
     74  CA       -22.8420   14.7620    1.5510 C.3   370  TYR370      0.1736
     75  C        -23.6840   14.7290    2.8270 C.2   370  TYR370      0.2595
     76  O        -24.7380   14.0900    2.8680 O.2   370  TYR370     -0.2718
     77  CB       -21.5820   13.9260    1.7880 C.3   370  TYR370      0.0548
     78  CG       -21.9010   12.5440    2.3320 C.ar  370  TYR370     -0.0200
     79  CD1      -22.5250   11.6010    1.5310 C.ar  370  TYR370     -0.0009
     80  CD2      -21.6110   12.2020    3.6470 C.ar  370  TYR370     -0.0009
     81  CE1      -22.8550   10.3620    2.0190 C.ar  370  TYR370      0.0417
     82  CE2      -21.9420   10.9560    4.1420 C.ar  370  TYR370      0.0417
     83  CZ       -22.5650   10.0440    3.3190 C.ar  370  TYR370      0.1957
     84  OH       -22.9140    8.8080    3.7960 O.3   370  TYR370     -0.2866
     85  N        -23.2200   15.4120    3.8720 N.am  371  ALA371     -0.1980
     86  CA       -23.9100   15.3980    5.1580 C.3   371  ALA371      0.1597
     87  C        -24.2980   16.7550    5.7560 C.2   371  ALA371      0.2287
     88  O        -24.5160   16.8680    6.9650 O.2   371  ALA371     -0.2864
     89  CB       -23.1070   14.5570    6.1640 C.3   371  ALA371      0.0319
     90  N        -22.3870   16.5800   11.0260 N.3   375  TRP375     -0.1241
     91  CA       -21.3780   15.8660   11.8130 C.3   375  TRP375      0.1605
     92  C        -20.5640   16.8510   12.6640 C.2   375  TRP375      0.2264
     93  O        -20.0240   16.4780   13.7060 O.2   375  TRP375     -0.2867
     94  CB       -20.4280   15.0630   10.8970 C.3   375  TRP375      0.0550
     95  CG       -19.7270   15.9080    9.8730 C.ar  375  TRP375      0.0003
     96  CD1      -20.2010   16.2320    8.6400 C.ar  375  TRP375      0.0946
     97  CD2      -18.4840   16.6190   10.0370 C.ar  375  TRP375      0.0152
     98  NE1      -19.3370   17.1250    8.0210 N.ar  375  TRP375     -0.2442
     99  CE2      -18.2820   17.3770    8.8540 C.ar  375  TRP375      0.0810
    100  CE3      -17.5360   16.7000   11.0570 C.ar  375  TRP375      0.0012
    101  CZ2      -17.1770   18.2020    8.6750 C.ar  375  TRP375      0.0191
    102  CZ3      -16.4380   17.5250   10.8690 C.ar  375  TRP375      0.0001
    103  CH2      -16.2690   18.2630    9.6920 C.ar  375  TRP375      0.0015
    104  N        -25.9410   14.1370   14.7220 N.3   380  TYR380     -0.1241
    105  CA       -25.6580   13.2450   13.6100 C.3   380  TYR380      0.1605
    106  C        -25.3630   11.8230   14.0940 C.2   380  TYR380      0.2264
    107  O        -24.6040   11.6420   15.0510 O.2   380  TYR380     -0.2867
    108  CB       -24.4710   13.8160   12.8330 C.3   380  TYR380      0.0534
    109  CG       -24.1860   13.0850   11.5560 C.ar  380  TYR380     -0.0201
    110  CD1      -24.9600   13.3090   10.4320 C.ar  380  TYR380     -0.0009
    111  CD2      -23.1650   12.1520   11.4850 C.ar  380  TYR380     -0.0009
    112  CE1      -24.7270   12.6180    9.2670 C.ar  380  TYR380      0.0417
    113  CE2      -22.9260   11.4550   10.3250 C.ar  380  TYR380      0.0417
    114  CZ       -23.7070   11.6910    9.2190 C.ar  380  TYR380      0.1957
    115  OH       -23.4620   10.9980    8.0570 O.3   380  TYR380     -0.2866
    116  N        -23.3700   17.3190   18.4940 N.3   393  ARG393     -0.1245
    117  CA       -22.0850   17.9740   18.2630 C.3   393  ARG393      0.1563
    118  C        -22.1710   19.4950   18.2480 C.2   393  ARG393      0.2260
    119  O        -21.1470   20.1830   18.2910 O.2   393  ARG393     -0.2867
    120  CB       -21.4780   17.4780   16.9420 C.3   393  ARG393      0.0307
    121  CG       -21.3270   15.9630   16.8240 C.3   393  ARG393      0.0489
    122  CD       -22.3080   15.3770   15.8180 C.3   393  ARG393      0.2205
    123  NE       -22.2570   13.9170   15.8130 N.pl3 393  ARG393     -0.0865
    124  CZ       -21.2790   13.1850   15.2820 C.cat 393  ARG393      0.5346
    125  NH1      -20.2600   13.7520   14.6540 N.pl3 393  ARG393      0.1354
    126  NH2      -21.3420   11.8650   15.3520 N.pl3 393  ARG393      0.1354
@<TRIPOS>BOND
     1    22    23    2
     2    22    21    1
     3    73    74    1
     4     4     3    2
     5    26    24    1
     6    79    81   ar
     7    79    78   ar
     8    74    77    1
     9    74    75    1
    10     3     2    1
    11    77    78    1
    12    67    68    2
    13    67    66    1
    14    21    24    1
    15    21    20    1
    16    81    83   ar
    17    24    25    1
    18    78    80   ar
    19    66    65    1
    20    66    69    1
    21     5     2    1
    22     5     6    1
    23    75    76    2
    24    75    85   am
    25     2     1    1
    26    71    70   ar
    27    83    84    1
    28    83    82   ar
    29    80    82   ar
    30     6     7    1
    31    85    86    1
    32    27    28    1
    33    69    70    1
    34    70    72   ar
    35    28    29    1
    36    28    31    1
    37     8     7    2
    38     7     9   am
    39    30    29    2
    40    29    38   am
    41    86    87    1
    42    86    89    1
    43    31    32    1
    44    87    88    2
    45    38    39    1
    46    40    41    2
    47    40    39    1
    48    36    35    1
    49    32    33    1
    50    39    42    1
    51    54    55    1
    52    54    51    1
    53    33    34    1
    54    35    34    2
    55    35    37    1
    56    55    56    1
    57    56    50    1
    58    51    50    1
    59    51    52    1
    60    42    43    1
    61    98    96   ar
    62    98    99   ar
    63   115   114    1
    64    53    52    2
    65    43    45   ar
    66    43    44   ar
    67    96    95   ar
    68   101    99   ar
    69   101   103   ar
    70    52    57   am
    71    99    97   ar
    72    45    47   ar
    73    44    46   ar
    74   114   112   ar
    75   114   113   ar
    76   112   110   ar
    77    13    12    2
    78    47    48   ar
    79    46    48   ar
    80    14    15    1
    81    14    11    1
    82    16    15   ar
    83    16    18   ar
    84   103   102   ar
    85    48    49    1
    86    15    17   ar
    87    57    58    1
    88    95    97   ar
    89    95    94    1
    90    18    19   ar
    91    63    62   ar
    92    97   100   ar
    93    17    19   ar
    94   113   111   ar
    95    12    11    1
    96   110   109   ar
    97   102   100   ar
    98    11    10    1
    99    94    91    1
   100    58    61    1
   101    58    59    1
   102    90    91    1
   103    62    64   ar
   104    62    61    1
   105   111   109   ar
   106   109   108    1
   107    91    92    1
   108    59    60    2
   109    92    93    2
   110   108   105    1
   111   105   106    1
   112   105   104    1
   113   106   107    2
   114   125   124    1
   115   124   126    1
   116   124   123    2
   117   123   122    1
   118   122   121    1
   119   121   120    1
   120   120   117    1
   121   118   117    1
   122   118   119    2
   123   117   116    1
