@<TRIPOS>MOLECULE
tmp/1cenA00.pdb
 144 144 0 0 0
SMALL
GASTEIGER

@<TRIPOS>ATOM
      1  N         50.5400   21.2690   67.5560 N.3    16  GLN16      -0.1245
      2  CA        51.1870   20.5450   66.4630 C.3    16  GLN16       0.1566
      3  C         52.6700   20.2590   66.7530 C.2    16  GLN16       0.2260
      4  O         53.5020   20.2220   65.8480 O.2    16  GLN16      -0.2867
      5  CB        51.0070   21.3050   65.1370 C.3    16  GLN16       0.0367
      6  CG        49.5550   21.4310   64.6890 C.3    16  GLN16       0.0905
      7  CD        49.4180   22.0170   63.2910 C.2    16  GLN16       0.2608
      8  OE1       49.6410   23.2050   63.0790 O.2    16  GLN16      -0.2717
      9  NE2       49.0360   21.1840   62.3350 N.am   16  GLN16      -0.0878
     10  N         43.5570   24.9890   69.2300 N.3    90  HIS90      -0.1241
     11  CA        43.6950   24.4080   67.9020 C.3    90  HIS90       0.1621
     12  C         43.1190   23.0130   67.8480 C.2    90  HIS90       0.2264
     13  O         42.5260   22.6110   66.8530 O.2    90  HIS90      -0.2867
     14  CB        45.1710   24.3710   67.5320 C.3    90  HIS90       0.0745
     15  CG        45.4430   24.4010   66.0590 C.ar   90  HIS90       0.0817
     16  ND1       45.4930   23.2580   65.2870 N.ar   90  HIS90      -0.2268
     17  CD2       45.7820   25.4270   65.2390 C.ar   90  HIS90       0.1154
     18  CE1       45.8610   23.5780   64.0580 C.ar   90  HIS90       0.1986
     19  NE2       46.0430   24.8860   64.0030 N.ar   90  HIS90      -0.2212
     20  N         39.6650   26.5080   66.5830 N.3   133  ASN133     -0.1225
     21  CA        40.3510   26.6910   65.3240 C.3   133  ASN133      0.1785
     22  C         39.8480   25.6590   64.3280 C.2   133  ASN133      0.2597
     23  O         40.0060   24.4590   64.5330 O.2   133  ASN133     -0.2718
     24  CB        41.8440   26.5080   65.5620 C.3   133  ASN133      0.1169
     25  CG        42.6580   26.7060   64.3270 C.2   133  ASN133      0.2627
     26  OD1       43.0120   27.8260   63.9980 O.2   133  ASN133     -0.2716
     27  ND2       42.9930   25.6150   63.6410 N.am  133  ASN133     -0.0877
     28  N         39.1860   26.1380   63.2850 N.am  134  GLN134     -0.1979
     29  CA        38.6750   25.2820   62.2190 C.3   134  GLN134      0.1601
     30  C         37.7630   24.1160   62.6000 C.2   134  GLN134      0.2287
     31  O         38.1910   23.1470   63.2210 O.2   134  GLN134     -0.2864
     32  CB        39.8440   24.7670   61.3850 C.3   134  GLN134      0.0394
     33  CG        40.7540   25.8850   60.9170 C.3   134  GLN134      0.0908
     34  CD        41.9050   25.4060   60.0770 C.2   134  GLN134      0.2608
     35  OE1       42.4020   26.1440   59.2250 O.2   134  GLN134     -0.2717
     36  NE2       42.3540   24.1790   60.3150 N.am  134  GLN134     -0.0878
     37  N         36.8740   24.9010   58.2640 N.3   170  TYR170     -0.1241
     38  CA        38.1600   25.5680   58.4960 C.3   170  TYR170      0.1605
     39  C         38.1090   27.0860   58.5860 C.2   170  TYR170      0.2264
     40  O         39.0480   27.7610   58.1590 O.2   170  TYR170     -0.2867
     41  CB        39.1870   25.1800   57.4230 C.3   170  TYR170      0.0534
     42  CG        39.4130   23.7000   57.2720 C.ar  170  TYR170     -0.0201
     43  CD1       39.9700   22.9460   58.3090 C.ar  170  TYR170     -0.0009
     44  CD2       39.0550   23.0470   56.0930 C.ar  170  TYR170     -0.0009
     45  CE1       40.1630   21.5800   58.1740 C.ar  170  TYR170      0.0417
     46  CE2       39.2400   21.6810   55.9460 C.ar  170  TYR170      0.0417
     47  CZ        39.7930   20.9550   56.9870 C.ar  170  TYR170      0.1957
     48  OH        39.9700   19.5980   56.8340 O.3   170  TYR170     -0.2866
     49  N         43.8790   30.8460   52.3820 N.3   194  TYR194     -0.1241
     50  CA        44.9740   30.1730   51.6850 C.3   194  TYR194      0.1605
     51  C         44.7030   30.0150   50.1720 C.2   194  TYR194      0.2264
     52  O         45.1560   29.0510   49.5610 O.2   194  TYR194     -0.2867
     53  CB        45.1930   28.7790   52.3020 C.3   194  TYR194      0.0534
     54  CG        45.7710   28.7990   53.7020 C.ar  194  TYR194     -0.0201
     55  CD1       47.1360   29.0180   53.9080 C.ar  194  TYR194     -0.0009
     56  CD2       44.9650   28.5620   54.8180 C.ar  194  TYR194     -0.0009
     57  CE1       47.6880   28.9920   55.1880 C.ar  194  TYR194      0.0417
     58  CE2       45.5080   28.5310   56.1040 C.ar  194  TYR194      0.0417
     59  CZ        46.8700   28.7440   56.2820 C.ar  194  TYR194      0.1957
     60  OH        47.4290   28.6790   57.5410 O.3   194  TYR194     -0.2866
     61  N         49.7290   25.9000   48.7800 N.3   201  HIS201     -0.1241
     62  CA        50.0880   24.5610   49.2520 C.3   201  HIS201      0.1621
     63  C         50.7280   23.6790   48.1930 C.2   201  HIS201      0.2264
     64  O         50.6570   22.4510   48.2720 O.2   201  HIS201     -0.2867
     65  CB        48.8630   23.8430   49.8050 C.3   201  HIS201      0.0745
     66  CG        48.3990   24.3730   51.1210 C.ar  201  HIS201      0.0817
     67  ND1       47.9590   25.6710   51.2930 N.ar  201  HIS201     -0.2268
     68  CD2       48.3350   23.7880   52.3400 C.ar  201  HIS201      0.1154
     69  CE1       47.6510   25.8650   52.5610 C.ar  201  HIS201      0.1986
     70  NE2       47.8690   24.7390   53.2170 N.ar  201  HIS201     -0.2212
     71  N         53.3850   18.1990   51.4620 N.3   205  HIS205     -0.1226
     72  CA        53.5420   16.7740   51.7610 C.3   205  HIS205      0.1752
     73  C         52.3590   16.1470   52.4670 C.2   205  HIS205      0.2596
     74  O         52.1660   14.9430   52.3860 O.2   205  HIS205     -0.2718
     75  CB        54.8310   16.5020   52.5480 C.3   205  HIS205      0.0759
     76  CG        54.7520   16.8440   54.0070 C.ar  205  HIS205      0.0818
     77  ND1       55.2730   18.0070   54.5310 N.ar  205  HIS205     -0.2268
     78  CD2       54.2420   16.1550   55.0590 C.ar  205  HIS205      0.1154
     79  CE1       55.0890   18.0220   55.8420 C.ar  205  HIS205      0.1986
     80  NE2       54.4660   16.9110   56.1860 N.ar  205  HIS205     -0.2212
     81  N         51.5800   16.9630   53.1690 N.am  206  TRP206     -0.1976
     82  CA        50.4200   16.4700   53.8960 C.3   206  TRP206      0.1640
     83  C         49.1150   16.5900   53.1100 C.2   206  TRP206      0.2290
     84  O         48.0500   16.2580   53.6220 O.2   206  TRP206     -0.2864
     85  CB        50.2860   17.2050   55.2310 C.3   206  TRP206      0.0576
     86  CG        50.0240   18.6680   55.0880 C.ar  206  TRP206      0.0006
     87  CD1       48.8080   19.2890   55.1110 C.ar  206  TRP206      0.0946
     88  CD2       51.0000   19.6970   54.9080 C.ar  206  TRP206      0.0152
     89  NE1       48.9680   20.6430   54.9600 N.ar  206  TRP206     -0.2442
     90  CE2       50.3050   20.9240   54.8340 C.ar  206  TRP206      0.0810
     91  CE3       52.3940   19.7040   54.8040 C.ar  206  TRP206      0.0012
     92  CZ2       50.9580   22.1490   54.6580 C.ar  206  TRP206      0.0191
     93  CZ3       53.0470   20.9250   54.6280 C.ar  206  TRP206      0.0001
     94  CH2       52.3250   22.1310   54.5590 C.ar  206  TRP206      0.0015
     95  N         44.8690   33.1780   59.9680 N.3   274  GLU274     -0.1245
     96  CA        45.8790   32.3880   59.2840 C.3   274  GLU274      0.1567
     97  C         45.8190   32.6450   57.8040 C.2   274  GLU274      0.2260
     98  O         44.7440   32.6230   57.2080 O.2   274  GLU274     -0.2867
     99  CB        45.6250   30.8960   59.4910 C.3   274  GLU274      0.0388
    100  CG        46.0480   30.3250   60.8210 C.3   274  GLU274      0.1160
    101  CD        45.8160   28.8200   60.9110 C.2   274  GLU274      0.3649
    102  OE1       45.9260   28.1180   59.8820 O.co2 274  GLU274     -0.2457
    103  OE2       45.5400   28.3290   62.0220 O.co2 274  GLU274     -0.2457
    104  N         50.7740   32.7990   58.8810 N.3   307  TRP307     -0.1241
    105  CA        51.2780   31.4760   59.2310 C.3   307  TRP307      0.1605
    106  C         52.6000   31.3630   58.3930 C.2   307  TRP307      0.2264
    107  O         52.5760   31.6340   57.1900 O.2   307  TRP307     -0.2867
    108  CB        50.2350   30.4310   58.8020 C.3   307  TRP307      0.0550
    109  CG        50.5020   29.0200   59.2690 C.ar  307  TRP307      0.0003
    110  CD1       51.0510   28.0060   58.5310 C.ar  307  TRP307      0.0946
    111  CD2       50.1990   28.4540   60.5590 C.ar  307  TRP307      0.0152
    112  NE1       51.1060   26.8570   59.2760 N.ar  307  TRP307     -0.2442
    113  CE2       50.5870   27.0980   60.5190 C.ar  307  TRP307      0.0810
    114  CE3       49.6360   28.9590   61.7380 C.ar  307  TRP307      0.0012
    115  CZ2       50.4290   26.2410   61.6120 C.ar  307  TRP307      0.0191
    116  CZ3       49.4810   28.1000   62.8310 C.ar  307  TRP307      0.0001
    117  CH2       49.8740   26.7630   62.7570 C.ar  307  TRP307      0.0015
    118  N         57.0530   24.5340   60.5550 N.3   312  MET312     -0.1230
    119  CA        55.7010   24.2950   60.0300 C.3   312  MET312      0.1702
    120  C         55.5460   24.5310   58.5110 C.2   312  MET312      0.2592
    121  O         54.4540   24.8580   58.0470 O.2   312  MET312     -0.2718
    122  CB        54.6300   25.0980   60.7980 C.3   312  MET312      0.0401
    123  CG        54.3560   24.6520   62.2410 C.3   312  MET312      0.0596
    124  SD        53.8290   22.9430   62.4790 S.3   312  MET312     -0.1393
    125  CE        55.3990   22.2270   62.7920 C.3   312  MET312      0.0692
    126  N         56.6430   24.3840   57.7590 N.am  313  ASP313     -0.1960
    127  CA        56.6880   24.5180   56.2910 C.3   313  ASP313      0.1840
    128  C         56.2890   25.8480   55.6900 C.2   313  ASP313      0.2622
    129  O         56.3590   26.0070   54.4730 O.2   313  ASP313     -0.2715
    130  CB        55.8470   23.4230   55.6100 C.3   313  ASP313      0.1450
    131  CG        56.3440   22.0090   55.9090 C.2   313  ASP313      0.3671
    132  OD1       57.4760   21.6570   55.5120 O.co2 313  ASP313     -0.2456
    133  OD2       55.5860   21.2370   56.5300 O.co2 313  ASP313     -0.2456
    134  N         55.9030   26.8010   56.5370 N.am  314  PHE314     -0.1974
    135  CA        55.4580   28.1240   56.1180 C.3   314  PHE314      0.1639
    136  C         56.2900   29.2160   56.7760 C.2   314  PHE314      0.2290
    137  O         55.8560   30.3640   56.8680 O.2   314  PHE314     -0.2864
    138  CB        53.9980   28.3160   56.5440 C.3   314  PHE314      0.0560
    139  CG        52.9950   27.6590   55.6310 C.ar  314  PHE314     -0.0200
    140  CD1       52.8600   26.2750   55.5960 C.ar  314  PHE314     -0.0042
    141  CD2       52.1740   28.4320   54.8100 C.ar  314  PHE314     -0.0042
    142  CE1       51.9220   25.6680   54.7520 C.ar  314  PHE314     -0.0003
    143  CE2       51.2340   27.8350   53.9660 C.ar  314  PHE314     -0.0003
    144  CZ        51.1090   26.4570   53.9350 C.ar  314  PHE314     -0.0000
@<TRIPOS>BOND
     1    63    64    2
     2    63    62    1
     3    61    62    1
     4    62    65    1
     5    52    51    2
     6    65    66    1
     7    51    50    1
     8    66    67   ar
     9    66    68   ar
    10    67    69   ar
    11    71    72    1
    12    50    53    1
    13    50    49    1
    14    72    73    1
    15    72    75    1
    16    53    54    1
    17    68    70   ar
    18    74    73    2
    19    73    81   am
    20    75    76    1
    21    69    70   ar
    22    83    84    2
    23    83    82    1
    24    81    82    1
    25    54    55   ar
    26    54    56   ar
    27    82    85    1
    28    55    57   ar
    29   144   143   ar
    30   144   142   ar
    31   143   141   ar
    32    76    77   ar
    33    76    78   ar
    34   129   128    2
    35    77    79   ar
    36    94    93   ar
    37    94    92   ar
    38    93    91   ar
    39    92    90   ar
    40   142   140   ar
    41    91    88   ar
    42   141   139   ar
    43    56    58   ar
    44    90    88   ar
    45    90    89   ar
    46    88    86   ar
    47    89    87   ar
    48    78    80   ar
    49    86    87   ar
    50    86    85    1
    51    57    59   ar
    52   132   131   ar
    53   140   139   ar
    54   130   131    1
    55   130   127    1
    56   139   138    1
    57   128   127    1
    58   128   134   am
    59    79    80   ar
    60   131   133   ar
    61    46    44   ar
    62    46    47   ar
    63    44    42   ar
    64    58    59   ar
    65   135   134    1
    66   135   138    1
    67   135   136    1
    68    59    60    1
    69   127   126    1
    70   136   137    2
    71    48    47    1
    72    47    45   ar
    73   107   106    2
    74    98    97    2
    75    42    41    1
    76    42    43   ar
    77    41    38    1
    78   126   120   am
    79    97    96    1
    80   121   120    2
    81    40    39    2
    82    45    43   ar
    83    37    38    1
    84   106   105    1
    85    38    39    1
    86   120   119    1
    87   110   109   ar
    88   110   112   ar
    89   108   105    1
    90   108   109    1
    91   104   105    1
    92    35    34    2
    93   109   111   ar
    94   112   113   ar
    95    96    99    1
    96    96    95    1
    97    99   100    1
    98   102   101   ar
    99   119   118    1
   100   119   122    1
   101    34    36   am
   102    34    33    1
   103   113   111   ar
   104   113   115   ar
   105   111   114   ar
   106   122   123    1
   107   100   101    1
   108   101   103   ar
   109    33    32    1
   110    32    29    1
   111   115   117   ar
   112   114   116   ar
   113    29    30    1
   114    29    28    1
   115   123   124    1
   116     9     7   am
   117   124   125    1
   118    30    31    2
   119   117   116   ar
   120     8     7    2
   121    28    22   am
   122     7     6    1
   123    27    25   am
   124    26    25    2
   125    19    18   ar
   126    19    17   ar
   127    18    16   ar
   128    25    24    1
   129    22    23    2
   130    22    21    1
   131     6     5    1
   132     5     2    1
   133    17    15   ar
   134    16    15   ar
   135    21    24    1
   136    21    20    1
   137     4     3    2
   138    15    14    1
   139     2     3    1
   140     2     1    1
   141    13    12    2
   142    14    11    1
   143    12    11    1
   144    11    10    1
