@<TRIPOS>MOLECULE
tmp/1cetA00.pdb
 104 101 0 0 0
SMALL
GASTEIGER

@<TRIPOS>ATOM
      1  N         37.0970   22.3380   15.8510 N.3     9  VAL9       -0.1231
      2  CA        36.9690   21.0040   16.4210 C.3     9  VAL9        0.1692
      3  C         36.4780   20.0740   15.3150 C.2     9  VAL9        0.2592
      4  O         35.2750   19.9050   15.1020 O.2     9  VAL9       -0.2718
      5  CB        35.9860   21.0170   17.6040 C.3     9  VAL9        0.0266
      6  CG1       35.7270   19.6080   18.0960 C.3     9  VAL9        0.0020
      7  CG2       36.5650   21.8580   18.7250 C.3     9  VAL9        0.0020
      8  N         37.4450   19.4790   14.6200 N.am   10  GLY10      -0.1957
      9  CA        37.1780   18.6020   13.4940 C.3    10  GLY10       0.1869
     10  C         38.0360   19.1390   12.3560 C.2    10  GLY10       0.2309
     11  O         37.8490   20.2740   11.9090 O.2    10  GLY10      -0.2863
     12  N         41.8870   21.0190   15.2630 N.3    33  PHE33      -0.1227
     13  CA        41.8660   19.9430   16.2410 C.3    33  PHE33       0.1736
     14  C         41.0980   18.7280   15.7670 C.2    33  PHE33       0.2595
     15  O         40.0880   18.8420   15.0810 O.2    33  PHE33      -0.2718
     16  CB        41.2510   20.4240   17.5600 C.3    33  PHE33       0.0547
     17  CG        40.9300   19.3030   18.5220 C.ar   33  PHE33      -0.0202
     18  CD1       39.7520   18.5740   18.3960 C.ar   33  PHE33      -0.0042
     19  CD2       41.8210   18.9620   19.5360 C.ar   33  PHE33      -0.0042
     20  CE1       39.4690   17.5170   19.2620 C.ar   33  PHE33      -0.0003
     21  CE2       41.5520   17.9140   20.4030 C.ar   33  PHE33      -0.0003
     22  CZ        40.3720   17.1890   20.2670 C.ar   33  PHE33      -0.0000
     23  N         41.5960   17.5600   16.1460 N.am   34  ASP34      -0.1960
     24  CA        40.9510   16.3050   15.8160 C.3    34  ASP34       0.1840
     25  C         41.6130   15.2100   16.6230 C.2    34  ASP34       0.2621
     26  O         42.6760   15.4150   17.2020 O.2    34  ASP34      -0.2715
     27  CB        41.0550   15.9910   14.3250 C.3    34  ASP34       0.1450
     28  CG        39.8530   15.2100   13.8200 C.2    34  ASP34       0.3671
     29  OD1       39.6070   14.1060   14.3460 O.co2  34  ASP34      -0.2456
     30  OD2       39.1500   15.7010   12.9110 O.co2  34  ASP34      -0.2456
     31  N         40.9720   14.0510   16.6680 N.am   35  ILE35      -0.1977
     32  CA        41.4990   12.9340   17.4200 C.3    35  ILE35       0.1596
     33  C         42.3850   12.0760   16.5440 C.2    35  ILE35       0.2287
     34  O         43.1040   11.2050   17.0310 O.2    35  ILE35      -0.2864
     35  CB        40.3560   12.1340   18.0090 C.3    35  ILE35       0.0276
     36  CG1       39.5440   11.4620   16.8970 C.3    35  ILE35       0.0022
     37  CG2       39.4750   13.0890   18.8090 C.3    35  ILE35       0.0022
     38  CD1       38.7440   10.2520   17.3600 C.3    35  ILE35       0.0001
     39  N         42.4640   18.3130   23.7180 N.3    66  TYR66      -0.1241
     40  CA        41.3920   19.2500   24.0230 C.3    66  TYR66       0.1605
     41  C         41.8580   20.4950   24.7660 C.2    66  TYR66       0.2264
     42  O         41.1750   21.5190   24.7670 O.2    66  TYR66      -0.2867
     43  CB        40.3140   18.5430   24.8400 C.3    66  TYR66       0.0534
     44  CG        39.2850   17.8500   23.9890 C.ar   66  TYR66      -0.0201
     45  CD1       38.3690   18.5860   23.2400 C.ar   66  TYR66      -0.0009
     46  CD2       39.2260   16.4570   23.9310 C.ar   66  TYR66      -0.0009
     47  CE1       37.4160   17.9510   22.4490 C.ar   66  TYR66       0.0417
     48  CE2       38.2790   15.8120   23.1450 C.ar   66  TYR66       0.0417
     49  CZ        37.3770   16.5650   22.4070 C.ar   66  TYR66       0.1957
     50  OH        36.4380   15.9310   21.6310 O.3    66  TYR66      -0.2866
     51  N         33.0660   17.9740   13.7910 N.3    79  ALA79      -0.1231
     52  CA        33.2940   16.5810   14.1580 C.3    79  ALA79       0.1694
     53  C         31.9820   15.8100   14.1930 C.2    79  ALA79       0.2593
     54  O         30.9270   16.3690   14.4890 O.2    79  ALA79      -0.2718
     55  CB        33.9650   16.5080   15.5170 C.3    79  ALA79       0.0304
     56  N         32.0470   14.5180   13.8910 N.am   80  GLY80      -0.1942
     57  CA        30.8440   13.7160   13.9220 C.3    80  GLY80       0.2014
     58  C         30.8120   12.5850   12.9200 C.2    80  GLY80       0.2638
     59  O         31.3080   12.7110   11.8020 O.2    80  GLY80      -0.2714
     60  N         30.2310   11.4630   13.3270 N.am   81  PHE81      -0.1973
     61  CA        30.1210   10.3210   12.4410 C.3    81  PHE81       0.1639
     62  C         29.1420   10.6940   11.3410 C.2    81  PHE81       0.2290
     63  O         28.2120   11.4750   11.5600 O.2    81  PHE81      -0.2864
     64  CB        29.6170    9.1030   13.2110 C.3    81  PHE81       0.0560
     65  CG        30.5830    8.6050   14.2380 C.ar   81  PHE81      -0.0200
     66  CD1       31.7460    7.9550   13.8490 C.ar   81  PHE81      -0.0042
     67  CD2       30.3390    8.7930   15.5930 C.ar   81  PHE81      -0.0042
     68  CE1       32.6590    7.4970   14.7960 C.ar   81  PHE81      -0.0003
     69  CE2       31.2440    8.3390   16.5520 C.ar   81  PHE81      -0.0003
     70  CZ        32.4070    7.6900   16.1530 C.ar   81  PHE81      -0.0000
     71  N         27.2940   11.6720   21.8060 N.3    93  LYS93      -0.1231
     72  CA        28.4260   11.3630   22.6790 C.3    93  LYS93       0.1693
     73  C         29.5900   12.2940   22.3650 C.2    93  LYS93       0.2591
     74  O         30.3330   12.7060   23.2590 O.2    93  LYS93      -0.2718
     75  CB        28.8690    9.9070   22.4980 C.3    93  LYS93       0.0285
     76  CG        27.9760    8.8920   23.2030 C.3    93  LYS93       0.0035
     77  CD        28.4980    7.4710   23.0330 C.3    93  LYS93       0.0206
     78  CE        27.7830    6.5070   23.9670 C.3    93  LYS93       0.1093
     79  NZ        28.0190    6.8680   25.3970 N.3    93  LYS93      -0.1314
     80  N         29.7480   12.6180   21.0880 N.am   94  ILE94      -0.1980
     81  CA        30.8030   13.5200   20.6730 C.3    94  ILE94       0.1595
     82  C         30.4670   14.9090   21.2070 C.2    94  ILE94       0.2287
     83  O         31.3380   15.5980   21.7320 O.2    94  ILE94      -0.2864
     84  CB        30.9330   13.5400   19.1400 C.3    94  ILE94       0.0276
     85  CG1       31.4790   12.1880   18.6650 C.3    94  ILE94       0.0022
     86  CG2       31.8510   14.6740   18.7000 C.3    94  ILE94       0.0022
     87  CD1       31.5090   12.0130   17.1570 C.3    94  ILE94       0.0001
     88  N         31.3080   15.0610   24.9630 N.3    97  GLU97      -0.1231
     89  CA        32.7430   15.1660   25.2040 C.3    97  GLU97       0.1699
     90  C         33.2480   16.5740   24.9020 C.2    97  GLU97       0.2592
     91  O         33.9960   17.1520   25.6890 O.2    97  GLU97      -0.2718
     92  CB        33.4930   14.1580   24.3360 C.3    97  GLU97       0.0402
     93  CG        35.0070   14.3230   24.3430 C.3    97  GLU97       0.1161
     94  CD        35.6980   13.2510   23.5200 C.2    97  GLU97       0.3649
     95  OE1       36.0250   12.1870   24.0810 O.co2  97  GLU97      -0.2457
     96  OE2       35.9100   13.4710   22.3110 O.co2  97  GLU97      -0.2457
     97  N         32.8430   17.1240   23.7630 N.am   98  ILE98      -0.1980
     98  CA        33.2720   18.4660   23.3880 C.3    98  ILE98       0.1595
     99  C         32.6940   19.4890   24.3590 C.2    98  ILE98       0.2287
    100  O         33.4010   20.3790   24.8180 O.2    98  ILE98      -0.2864
    101  CB        32.8340   18.8220   21.9470 C.3    98  ILE98       0.0276
    102  CG1       33.5560   17.9200   20.9430 C.3    98  ILE98       0.0022
    103  CG2       33.1740   20.2730   21.6390 C.3    98  ILE98       0.0022
    104  CD1       32.8680   17.8340   19.5870 C.3    98  ILE98       0.0001
@<TRIPOS>BOND
     1    62    63    2
     2    62    61    1
     3    59    58    2
     4    11    10    2
     5    10     9    1
     6    61    64    1
     7    61    60    1
     8    30    28   ar
     9    58    60   am
    10    58    57    1
    11    64    65    1
    12     9     8    1
    13    51    52    1
    14    28    27    1
    15    28    29   ar
    16    66    65   ar
    17    66    68   ar
    18    56    57    1
    19    56    53   am
    20    52    53    1
    21    52    55    1
    22    53    54    2
    23    65    67   ar
    24    27    24    1
    25     8     3   am
    26    68    70   ar
    27    15    14    2
    28     4     3    2
    29    12    13    1
    30     3     2    1
    31    67    69   ar
    32    14    23   am
    33    14    13    1
    34    24    23    1
    35    24    25    1
    36     1     2    1
    37    70    69   ar
    38    13    16    1
    39     2     5    1
    40    33    34    2
    41    33    32    1
    42    25    31   am
    43    25    26    2
    44    31    32    1
    45    36    38    1
    46    36    35    1
    47    87    85    1
    48    32    35    1
    49    16    17    1
    50     5     6    1
    51     5     7    1
    52    35    37    1
    53    18    17   ar
    54    18    20   ar
    55    17    19   ar
    56    85    84    1
    57    86    84    1
    58    84    81    1
    59    20    22   ar
    60    19    21   ar
    61   104   102    1
    62    22    21   ar
    63    81    80    1
    64    81    82    1
    65   102   101    1
    66    80    73   am
    67    82    83    2
    68    50    49    1
    69   103   101    1
    70    71    72    1
    71   101    98    1
    72    96    94   ar
    73    73    72    1
    74    73    74    2
    75    49    47   ar
    76    49    48   ar
    77    47    45   ar
    78    75    72    1
    79    75    76    1
    80    77    76    1
    81    77    78    1
    82    48    46   ar
    83    45    44   ar
    84    98    97    1
    85    98    99    1
    86    94    95   ar
    87    94    93    1
    88    39    40    1
    89    97    90   am
    90    46    44   ar
    91    78    79    1
    92    44    43    1
    93    40    41    1
    94    40    43    1
    95    92    93    1
    96    92    89    1
    97    99   100    2
    98    41    42    2
    99    90    89    1
   100    90    91    2
   101    88    89    1
