@<TRIPOS>MOLECULE
tmp/1cf0B00.pdb
 96 94 0 0 0
SMALL
GASTEIGER

@<TRIPOS>ATOM
      1  N         30.7370   54.1180   28.7070 N.3     1  GLY1       -0.1210
      2  CA        31.1250   53.1800   29.7990 C.3     1  GLY1        0.1956
      3  C         30.3940   53.4700   31.0850 C.2     1  GLY1        0.2611
      4  O         30.4580   54.5710   31.5980 O.2     1  GLY1       -0.2717
      5  N         29.7210   52.4740   31.6340 N.am    2  TRP2       -0.1976
      6  CA        28.9750   52.6640   32.8600 C.3     2  TRP2        0.1640
      7  C         29.7860   52.6610   34.1560 C.2     2  TRP2        0.2290
      8  O         29.3910   53.2790   35.1310 O.2     2  TRP2       -0.2864
      9  CB        27.8680   51.6280   32.9250 C.3     2  TRP2        0.0576
     10  CG        26.7760   51.8600   31.9180 C.ar    2  TRP2        0.0006
     11  CD1       26.4830   51.0890   30.8240 C.ar    2  TRP2        0.0946
     12  CD2       25.8030   52.9050   31.9400 C.ar    2  TRP2        0.0152
     13  NE1       25.3880   51.5930   30.1740 N.ar    2  TRP2       -0.2442
     14  CE2       24.9460   52.7040   30.8400 C.ar    2  TRP2        0.0810
     15  CE3       25.5660   53.9920   32.7890 C.ar    2  TRP2        0.0012
     16  CZ2       23.8710   53.5470   30.5650 C.ar    2  TRP2        0.0191
     17  CZ3       24.4940   54.8380   32.5130 C.ar    2  TRP2        0.0001
     18  CH2       23.6620   54.6100   31.4120 C.ar    2  TRP2        0.0015
     19  N         32.3320   54.2310   34.7260 N.3     4  ALA4       -0.1231
     20  CA        32.8050   55.6120   34.8930 C.3     4  ALA4        0.1694
     21  C         31.7870   56.4580   35.6840 C.2     4  ALA4        0.2592
     22  O         32.1240   57.4690   36.3060 O.2     4  ALA4       -0.2718
     23  CB        33.0540   56.2330   33.5360 C.3     4  ALA4        0.0304
     24  N         30.5240   56.0660   35.6050 N.am    5  TYR5       -0.1976
     25  CA        29.4540   56.7380   36.3290 C.3     5  TYR5        0.1639
     26  C         29.5740   56.3190   37.7630 C.2     5  TYR5        0.2290
     27  O         29.3040   57.1040   38.6520 O.2     5  TYR5       -0.2864
     28  CB        28.1040   56.2860   35.7930 C.3     5  TYR5        0.0560
     29  CG        27.6560   57.0820   34.5980 C.ar    5  TYR5       -0.0198
     30  CD1       28.2030   56.8670   33.3490 C.ar    5  TYR5       -0.0009
     31  CD2       26.6990   58.0670   34.7390 C.ar    5  TYR5       -0.0009
     32  CE1       27.8100   57.6120   32.2760 C.ar    5  TYR5        0.0417
     33  CE2       26.2940   58.8170   33.6860 C.ar    5  TYR5        0.0417
     34  CZ        26.8490   58.5930   32.4550 C.ar    5  TYR5        0.1957
     35  OH        26.4430   59.3830   31.4100 O.3     5  TYR5       -0.2866
     36  N         32.5030   58.3290   39.1520 N.3     8  ASN8       -0.1240
     37  CA        32.0690   59.6950   39.3370 C.3     8  ASN8        0.1653
     38  C         31.2450   59.8310   40.6340 C.2     8  ASN8        0.2266
     39  O         31.5000   60.7260   41.4400 O.2     8  ASN8       -0.2867
     40  CB        31.2510   60.1040   38.1270 C.3     8  ASN8        0.1155
     41  CG        30.5000   61.3780   38.3480 C.2     8  ASN8        0.2627
     42  OD1       31.0940   62.4540   38.4120 O.2     8  ASN8       -0.2716
     43  ND2       29.1800   61.2710   38.5010 N.am    8  ASN8       -0.0877
     44  N         20.6000   64.4120   40.6310 N.3   128  GLU128     -0.1231
     45  CA        21.3910   65.0610   39.6020 C.3   128  GLU128      0.1699
     46  C         21.9340   64.0750   38.5680 C.2   128  GLU128      0.2592
     47  O         21.9560   64.3810   37.3700 O.2   128  GLU128     -0.2718
     48  CB        22.4690   65.9480   40.2200 C.3   128  GLU128      0.0402
     49  CG        21.8980   67.2510   40.7940 C.3   128  GLU128      0.1161
     50  CD        22.8490   68.0070   41.7350 C.2   128  GLU128      0.3649
     51  OE1       23.9550   67.5070   42.0880 O.co2 128  GLU128     -0.2457
     52  OE2       22.4650   69.1280   42.1430 O.co2 128  GLU128     -0.2457
     53  N         22.2910   62.8690   39.0070 N.am  129  MET129     -0.1979
     54  CA        22.8010   61.8590   38.0860 C.3   129  MET129      0.1605
     55  C         21.6840   61.4120   37.1670 C.2   129  MET129      0.2287
     56  O         21.8860   61.3010   35.9510 O.2   129  MET129     -0.2864
     57  CB        23.3510   60.6430   38.8410 C.3   129  MET129      0.0413
     58  CG        23.8390   59.5130   37.9400 C.3   129  MET129      0.0598
     59  SD        24.8930   60.1740   36.6580 S.3   129  MET129     -0.1393
     60  CE        26.5420   60.1310   37.4570 C.3   129  MET129      0.0692
     61  N         20.5940   63.8720   34.3860 N.3   132  HIS132     -0.1226
     62  CA        21.6010   63.8270   33.3200 C.3   132  HIS132      0.1752
     63  C         21.3170   62.7090   32.3130 C.2   132  HIS132      0.2595
     64  O         21.3840   62.9060   31.1070 O.2   132  HIS132     -0.2718
     65  CB        22.9920   63.6340   33.9330 C.3   132  HIS132      0.0759
     66  CG        24.0560   63.3180   32.9260 C.ar  132  HIS132      0.0818
     67  ND1       24.3230   62.0320   32.5070 N.ar  132  HIS132     -0.2268
     68  CD2       24.8970   64.1210   32.2380 C.ar  132  HIS132      0.1154
     69  CE1       25.2840   62.0560   31.6060 C.ar  132  HIS132      0.1986
     70  NE2       25.6500   63.3110   31.4250 N.ar  132  HIS132     -0.2212
     71  N         21.0400   61.5240   32.8300 N.am  133  LEU133     -0.1980
     72  CA        20.7210   60.3670   32.0170 C.3   133  LEU133      0.1596
     73  C         19.4380   60.6220   31.2450 C.2   133  LEU133      0.2287
     74  O         19.3650   60.3160   30.0620 O.2   133  LEU133     -0.2864
     75  CB        20.5420   59.1370   32.9150 C.3   133  LEU133      0.0297
     76  CG        21.6390   58.0690   32.9940 C.3   133  LEU133      0.0022
     77  CD1       22.9780   58.5940   32.5500 C.3   133  LEU133      0.0001
     78  CD2       21.7050   57.5340   34.3960 C.3   133  LEU133      0.0001
     79  N         19.6860   62.5670   28.0490 N.3   136  SER136     -0.1217
     80  CA        20.3290   61.8550   26.9430 C.3   136  SER136      0.1889
     81  C         19.5410   60.6170   26.5230 C.2   136  SER136      0.2288
     82  O         20.0700   59.7010   25.8900 O.2   136  SER136     -0.2866
     83  CB        21.7390   61.4600   27.3420 C.3   136  SER136      0.2089
     84  OG        22.3810   62.4920   28.0640 O.3   136  SER136     -0.2183
     85  N         18.2480   58.2360   28.3680 N.3   138  TYR138     -0.1241
     86  CA        18.6060   57.0270   29.1050 C.3   138  TYR138      0.1605
     87  C         17.7690   56.8800   30.3890 C.2   138  TYR138      0.2264
     88  O         18.1820   56.0990   31.2580 O.2   138  TYR138     -0.2867
     89  CB        20.0910   57.0250   29.4680 C.3   138  TYR138      0.0534
     90  CG        20.9380   56.2930   28.4740 C.ar  138  TYR138     -0.0201
     91  CD1       21.1230   54.9100   28.5620 C.ar  138  TYR138     -0.0009
     92  CD2       21.5400   56.9790   27.4230 C.ar  138  TYR138     -0.0009
     93  CE1       21.8950   54.2360   27.6120 C.ar  138  TYR138      0.0417
     94  CE2       22.3040   56.3210   26.4790 C.ar  138  TYR138      0.0417
     95  CZ        22.4840   54.9560   26.5690 C.ar  138  TYR138      0.1957
     96  OH        23.2720   54.3330   25.6090 O.3   138  TYR138     -0.2866
@<TRIPOS>BOND
     1    96    95    1
     2    82    81    2
     3    94    95   ar
     4    94    92   ar
     5    81    80    1
     6    95    93   ar
     7    80    83    1
     8    80    79    1
     9    83    84    1
    10    92    90   ar
    11    93    91   ar
    12    85    86    1
    13    90    91   ar
    14    90    89    1
    15     1     2    1
    16    86    89    1
    17    86    87    1
    18     2     3    1
    19    74    73    2
    20    13    11   ar
    21    13    14   ar
    22    87    88    2
    23    16    14   ar
    24    16    18   ar
    25    11    10   ar
    26    14    12   ar
    27     3     4    2
    28     3     5   am
    29    64    63    2
    30    73    72    1
    31    35    34    1
    32    18    17   ar
    33    70    69   ar
    34    70    68   ar
    35    69    67   ar
    36     5     6    1
    37    10    12   ar
    38    10     9    1
    39    12    15   ar
    40    72    71    1
    41    72    75    1
    42    68    66   ar
    43    32    34   ar
    44    32    30   ar
    45    63    71   am
    46    63    62    1
    47    34    33   ar
    48    67    66   ar
    49    17    15   ar
    50    77    76    1
    51     6     9    1
    52     6     7    1
    53    75    76    1
    54    66    65    1
    55    76    78    1
    56    62    65    1
    57    62    61    1
    58    30    29   ar
    59    23    20    1
    60    33    31   ar
    61     7     8    2
    62    29    31   ar
    63    29    28    1
    64    19    20    1
    65    20    21    1
    66    24    21   am
    67    24    25    1
    68    21    22    2
    69    28    25    1
    70    56    55    2
    71    25    26    1
    72    59    60    1
    73    59    58    1
    74    55    54    1
    75    47    46    2
    76    26    27    2
    77    58    57    1
    78    54    57    1
    79    54    53    1
    80    40    41    1
    81    40    37    1
    82    41    42    2
    83    41    43   am
    84    46    53   am
    85    46    45    1
    86    36    37    1
    87    37    38    1
    88    45    48    1
    89    45    44    1
    90    48    49    1
    91    38    39    2
    92    49    50    1
    93    50    51   ar
    94    50    52   ar
