@<TRIPOS>MOLECULE
tmp/1cf4A00.pdb
 208 204 0 0 0
SMALL
GASTEIGER

@<TRIPOS>ATOM
      1  N          4.6520   -3.6690   -5.8720 N.3    11  ASP11      -0.1225
      2  CA         5.1070   -4.8740   -5.1920 C.3    11  ASP11       0.1805
      3  C          4.9780   -4.7240   -3.6800 C.2    11  ASP11       0.2598
      4  O          5.7230   -5.3420   -2.9200 O.2    11  ASP11      -0.2718
      5  CB         6.5570   -5.1820   -5.5660 C.3    11  ASP11       0.1424
      6  CG         6.6650   -6.2510   -6.6360 C.2    11  ASP11       0.3668
      7  OD1        6.2250   -5.9950   -7.7770 O.co2  11  ASP11      -0.2456
      8  OD2        7.1870   -7.3440   -6.3330 O.co2  11  ASP11      -0.2456
      9  N          4.0310   -3.8960   -3.2510 N.am   12  GLY12      -0.1942
     10  CA         3.8240   -3.6780   -1.8310 C.3    12  GLY12       0.2014
     11  C          2.3830   -3.3660   -1.4910 C.2    12  GLY12       0.2639
     12  O          1.6510   -2.8020   -2.3030 O.2    12  GLY12      -0.2714
     13  N          1.9800   -3.7370   -0.2830 N.am   13  ALA13      -0.1963
     14  CA         0.6220   -3.4960    0.1780 C.3    13  ALA13       0.1728
     15  C          0.2910   -2.0100    0.1360 C.2    13  ALA13       0.2616
     16  O         -0.6940   -1.6080   -0.4730 O.2    13  ALA13      -0.2715
     17  CB         0.4430   -4.0400    1.5860 C.3    13  ALA13       0.0334
     18  N          1.1260   -1.2010    0.7900 N.am   14  VAL14      -0.1977
     19  CA         0.9320    0.2520    0.8370 C.3    14  VAL14       0.1596
     20  C         -0.5270    0.6130    1.1160 C.2    14  VAL14       0.2287
     21  O         -0.9140    0.7990    2.2680 O.2    14  VAL14      -0.2864
     22  CB         1.3920    0.9570   -0.4640 C.3    14  VAL14       0.0276
     23  CG1        2.7630    1.5840   -0.2690 C.3    14  VAL14       0.0022
     24  CG2        1.4080   -0.0010   -1.6480 C.3    14  VAL14       0.0022
     25  N         -3.0610   -1.3510    0.3400 N.3    16  LYS16      -0.1231
     26  CA        -3.8120   -2.5990    0.2510 C.3    16  LYS16       0.1693
     27  C         -4.5610   -2.8780    1.5490 C.2    16  LYS16       0.2593
     28  O         -4.7430   -1.9880    2.3780 O.2    16  LYS16      -0.2718
     29  CB        -2.8710   -3.7660   -0.0680 C.3    16  LYS16       0.0285
     30  CG        -3.1990   -4.4770   -1.3720 C.3    16  LYS16       0.0035
     31  CD        -2.6660   -5.9000   -1.3800 C.3    16  LYS16       0.0206
     32  CE        -1.3370   -5.9930   -2.1130 C.3    16  LYS16       0.1093
     33  NZ        -1.5130   -6.4040   -3.5330 N.3    16  LYS16      -0.1314
     34  N         -4.9940   -4.1210    1.7150 N.am   17  THR17      -0.1939
     35  CA        -5.7250   -4.5270    2.9080 C.3    17  THR17       0.2028
     36  C         -4.7880   -4.6640    4.1040 C.2    17  THR17       0.2642
     37  O         -5.1990   -4.4840    5.2510 O.2    17  THR17      -0.2714
     38  CB        -6.4330   -5.8550    2.6560 C.3    17  THR17       0.1808
     39  OG1       -5.5860   -6.7440    1.9520 O.3    17  THR17      -0.2208
     40  CG2       -7.7110   -5.7140    1.8590 C.3    17  THR17       0.0379
     41  N         -3.5270   -4.9890    3.8270 N.am   18  CYS18      -0.1967
     42  CA        -2.5220   -5.1610    4.8760 C.3    18  CYS18       0.1712
     43  C         -2.6450   -4.0880    5.9550 C.2    18  CYS18       0.2296
     44  O         -2.3240   -4.3270    7.1200 O.2    18  CYS18      -0.2864
     45  CB        -1.1180   -5.1280    4.2710 C.3    18  CYS18       0.0983
     46  SG         0.2100   -5.3590    5.4750 S.3    18  CYS18      -0.0798
     47  N         -6.1770   -4.8640    7.6210 N.3    21  ILE21      -0.1231
     48  CA        -6.0730   -6.2870    7.9130 C.3    21  ILE21       0.1692
     49  C         -5.0960   -6.5250    9.0620 C.2    21  ILE21       0.2592
     50  O         -5.5080   -6.8690   10.1630 O.2    21  ILE21      -0.2718
     51  CB        -5.6560   -7.0880    6.6450 C.3    21  ILE21       0.0266
     52  CG1       -6.8900   -7.3490    5.7820 C.3    21  ILE21       0.0019
     53  CG2       -4.9660   -8.4090    6.9900 C.3    21  ILE21       0.0020
     54  CD1       -7.9900   -8.0840    6.5170 C.3    21  ILE21       0.0001
     55  N         -3.8090   -6.3320    8.8040 N.am   22  SER22      -0.1952
     56  CA        -2.7950   -6.5270    9.8370 C.3    22  SER22       0.1924
     57  C         -3.1070   -5.6810   11.0620 C.2    22  SER22       0.2314
     58  O         -2.8610   -6.1020   12.1930 O.2    22  SER22      -0.2863
     59  CB        -1.4060   -6.1830    9.2980 C.3    22  SER22       0.2116
     60  OG        -1.1140   -6.9270    8.1280 O.3    22  SER22      -0.2180
     61  N         -4.3210  -11.1920   10.8070 N.3    26  ASN26      -0.1225
     62  CA        -3.8410  -11.8120    9.5610 C.3    26  ASN26       0.1785
     63  C         -2.3360  -12.0600    9.6290 C.2    26  ASN26       0.2597
     64  O         -1.8030  -12.8970    8.9000 O.2    26  ASN26      -0.2718
     65  CB        -4.1790  -10.9690    8.3220 C.3    26  ASN26       0.1169
     66  CG        -4.0190  -11.7490    7.0320 C.2    26  ASN26       0.2627
     67  OD1       -4.9880  -12.2800    6.4900 O.2    26  ASN26      -0.2716
     68  ND2       -2.7910  -11.8220    6.5330 N.am   26  ASN26      -0.0877
     69  N         -1.6560  -11.3370   10.5180 N.am   27  LYS27      -0.1966
     70  CA        -0.2140  -11.4890   10.6890 C.3    27  LYS27       0.1728
     71  C          0.5350  -11.1780    9.3980 C.2    27  LYS27       0.2616
     72  O          0.0420  -11.4400    8.3010 O.2    27  LYS27      -0.2715
     73  CB         0.1170  -12.9080   11.1530 C.3    27  LYS27       0.0311
     74  CG        -0.3340  -13.2050   12.5730 C.3    27  LYS27       0.0038
     75  CD        -1.2260  -14.4350   12.6280 C.3    27  LYS27       0.0206
     76  CE        -1.9530  -14.5350   13.9590 C.3    27  LYS27       0.1093
     77  NZ        -3.2780  -13.8560   13.9210 N.3    27  LYS27      -0.1314
     78  N          1.7340  -10.6200    9.5390 N.am   28  PHE28      -0.1974
     79  CA         2.5580  -10.2750    8.3870 C.3    28  PHE28       0.1639
     80  C          3.4530  -11.4530    7.9830 C.2    28  PHE28       0.2290
     81  O          3.5310  -11.8040    6.8060 O.2    28  PHE28      -0.2864
     82  CB         3.3970   -9.0200    8.6960 C.3    28  PHE28       0.0560
     83  CG         4.6090   -8.8370    7.8170 C.ar   28  PHE28      -0.0200
     84  CD1        4.4720   -8.4420    6.4780 C.ar   28  PHE28      -0.0042
     85  CD2        5.8970   -9.0560    8.3270 C.ar   28  PHE28      -0.0042
     86  CE1        5.5960   -8.2700    5.6660 C.ar   28  PHE28      -0.0003
     87  CE2        7.0240   -8.8830    7.5190 C.ar   28  PHE28      -0.0003
     88  CZ         6.8720   -8.4910    6.1860 C.ar   28  PHE28      -0.0000
     89  N          1.2680  -15.8660    5.7700 N.3    31  GLU31      -0.1231
     90  CA         0.9580  -16.2110    4.3880 C.3    31  GLU31       0.1699
     91  C          0.0930  -15.1350    3.7440 C.2    31  GLU31       0.2592
     92  O         -0.5100  -14.3140    4.4360 O.2    31  GLU31      -0.2718
     93  CB         0.2420  -17.5610    4.3250 C.3    31  GLU31       0.0402
     94  CG        -1.0610  -17.5900    5.1030 C.3    31  GLU31       0.1161
     95  CD        -1.1570  -18.7840    6.0340 C.2    31  GLU31       0.3649
     96  OE1       -0.0990  -19.3270    6.4130 O.co2  31  GLU31      -0.2457
     97  OE2       -2.2910  -19.1740    6.3830 O.co2  31  GLU31      -0.2457
     98  N          0.0340  -15.1430    2.4180 N.am   32  TYR32      -0.1962
     99  CA        -0.7600  -14.1650    1.6870 C.3    32  TYR32       0.1771
    100  C         -1.5660  -14.8350    0.5780 C.2    32  TYR32       0.2619
    101  O         -1.0260  -15.1900   -0.4700 O.2    32  TYR32      -0.2715
    102  CB         0.1480  -13.0790    1.1100 C.3    32  TYR32       0.0574
    103  CG         0.8880  -12.2990    2.1730 C.ar   32  TYR32      -0.0198
    104  CD1        2.0370  -12.8260    2.7870 C.ar   32  TYR32      -0.0009
    105  CD2        0.4370  -11.0340    2.5840 C.ar   32  TYR32      -0.0009
    106  CE1        2.7170  -12.1110    3.7770 C.ar   32  TYR32       0.0417
    107  CE2        1.1100  -10.3130    3.5730 C.ar   32  TYR32       0.0417
    108  CZ         2.2480  -10.8570    4.1660 C.ar   32  TYR32       0.1957
    109  OH         2.9120  -10.1530    5.1400 O.3    32  TYR32      -0.2866
    110  N         -2.8630  -15.0050    0.8220 N.am   33  VAL33      -0.1964
    111  CA        -3.7520  -15.6340   -0.1520 C.3    33  VAL33       0.1712
    112  C         -5.2180  -15.3910    0.1960 C.2    33  VAL33       0.2458
    113  O         -5.9550  -14.7830   -0.5810 O.2    33  VAL33      -0.2730
    114  CB        -3.5200  -17.1620   -0.2810 C.3    33  VAL33       0.0289
    115  CG1       -3.2530  -17.5330   -1.7300 C.3    33  VAL33       0.0023
    116  CG2       -2.3830  -17.6430    0.6150 C.3    33  VAL33       0.0023
    117  N         -5.6680  -15.8670    1.3720 N.am   34  PRO34      -0.2716
    118  CA        -7.0550  -15.6970    1.8070 C.3    34  PRO34       0.1536
    119  C         -7.5860  -14.2950    1.5310 C.2    34  PRO34       0.2599
    120  O         -8.7840  -14.1070    1.3290 O.2    34  PRO34      -0.2715
    121  CB        -6.9740  -15.9620    3.3080 C.3    34  PRO34       0.0310
    122  CG        -5.8660  -16.9470    3.4460 C.3    34  PRO34       0.0237
    123  CD        -4.8670  -16.6080    2.3690 C.3    34  PRO34       0.0939
    124  N         -6.6880  -13.3160    1.5200 N.am   35  THR35      -0.1951
    125  CA        -7.0680  -11.9300    1.2670 C.3    35  THR35       0.1897
    126  C         -7.7760  -11.7880   -0.0820 C.2    35  THR35       0.2313
    127  O         -8.4940  -10.8160   -0.3160 O.2    35  THR35      -0.2863
    128  CB        -5.8320  -11.0260    1.3120 C.3    35  THR35       0.1794
    129  OG1       -6.2060   -9.6730    1.5060 O.3    35  THR35      -0.2208
    130  CG2       -4.9860  -11.0930    0.0560 C.3    35  THR35       0.0378
    131  N          4.6480    1.8620   -3.4670 N.3    81  CYS81      -0.1221
    132  CA         5.2800    1.2350   -2.3110 C.3    81  CYS81       0.1808
    133  C          6.8000    1.2940   -2.4010 C.2    81  CYS81       0.2601
    134  O          7.3620    1.7180   -3.4110 O.2    81  CYS81      -0.2717
    135  CB         4.8310   -0.2200   -2.1820 C.3    81  CYS81       0.0970
    136  SG         5.4600   -1.3060   -3.4840 S.3    81  CYS81      -0.0800
    137  N          7.4530    0.8560   -1.3300 N.am   82  PHE82      -0.1962
    138  CA         8.9080    0.8430   -1.2610 C.3    82  PHE82       0.1771
    139  C          9.3670    0.2790    0.0840 C.2    82  PHE82       0.2620
    140  O          8.5510   -0.1800    0.8820 O.2    82  PHE82      -0.2715
    141  CB         9.4720    2.2560   -1.4840 C.3    82  PHE82       0.0574
    142  CG         9.4970    3.1170   -0.2500 C.ar   82  PHE82      -0.0200
    143  CD1        8.3760    3.8730    0.1180 C.ar   82  PHE82      -0.0042
    144  CD2       10.6450    3.1730    0.5520 C.ar   82  PHE82      -0.0042
    145  CE1        8.4000    4.6710    1.2650 C.ar   82  PHE82      -0.0003
    146  CE2       10.6760    3.9690    1.6990 C.ar   82  PHE82      -0.0003
    147  CZ         9.5520    4.7190    2.0560 C.ar   82  PHE82      -0.0000
    148  N         10.6710    0.3170    0.3310 N.am   83  SER83      -0.1936
    149  CA        11.2210   -0.1910    1.5830 C.3    83  SER83       0.2055
    150  C         12.5650    0.4630    1.8910 C.2    83  SER83       0.2642
    151  O         13.3060    0.8370    0.9820 O.2    83  SER83      -0.2714
    152  CB        11.3850   -1.7100    1.5100 C.3    83  SER83       0.2130
    153  OG        11.2810   -2.1710    0.1730 O.3    83  SER83      -0.2179
    154  N         12.8740    0.5980    3.1770 N.am   84  VAL84      -0.1977
    155  CA        14.1310    1.2070    3.6010 C.3    84  VAL84       0.1596
    156  C         15.3310    0.4070    3.1040 C.2    84  VAL84       0.2287
    157  O         16.3220    0.9780    2.6490 O.2    84  VAL84      -0.2864
    158  CB        14.2060    1.3300    5.1340 C.3    84  VAL84       0.0276
    159  CG1       15.4760    2.0540    5.5520 C.3    84  VAL84       0.0022
    160  CG2       12.9760    2.0440    5.6730 C.3    84  VAL84       0.0022
    161  N          4.8230    5.3240    1.4710 N.3   113  VAL113     -0.1231
    162  CA         4.4680    4.7910    2.7790 C.3   113  VAL113      0.1692
    163  C          5.6370    4.0740    3.4410 C.2   113  VAL113      0.2593
    164  O          6.4680    3.4610    2.7720 O.2   113  VAL113     -0.2718
    165  CB         3.2850    3.8130    2.6760 C.3   113  VAL113      0.0266
    166  CG1        2.7310    3.4960    4.0550 C.3   113  VAL113      0.0020
    167  CG2        2.2000    4.3790    1.7720 C.3   113  VAL113      0.0020
    168  N          5.6810    4.1480    4.7670 N.am  114  GLY114     -0.1942
    169  CA         6.7350    3.4930    5.5180 C.3   114  GLY114      0.2014
    170  C          6.1950    2.3590    6.3670 C.2   114  GLY114      0.2640
    171  O          5.1020    2.4620    6.9210 O.2   114  GLY114     -0.2714
    172  N          6.9510    1.2720    6.4650 N.am  115  THR115     -0.1936
    173  CA         6.5220    0.1180    7.2510 C.3   115  THR115      0.2028
    174  C          7.7230   -0.6850    7.7460 C.2   115  THR115      0.2642
    175  O          7.9350   -0.8260    8.9500 O.2   115  THR115     -0.2714
    176  CB         5.5880   -0.7730    6.4220 C.3   115  THR115      0.1808
    177  OG1        6.3160   -1.7880    5.7590 O.3   115  THR115     -0.2208
    178  CG2        4.8050   -0.0130    5.3700 C.3   115  THR115      0.0379
    179  N          8.5060   -1.2100    6.8100 N.am  116  GLN116     -0.1963
    180  CA         9.6850   -1.9960    7.1510 C.3   116  GLN116      0.1733
    181  C         10.6770   -1.1700    7.9670 C.2   116  GLN116      0.2616
    182  O         11.5350   -1.7190    8.6570 O.2   116  GLN116     -0.2715
    183  CB        10.3620   -2.5150    5.8810 C.3   116  GLN116      0.0408
    184  CG         9.4350   -3.3170    4.9800 C.3   116  GLN116      0.0908
    185  CD         9.4300   -4.7950    5.3170 C.2   116  GLN116      0.2608
    186  OE1        8.9870   -5.1970    6.3930 O.2   116  GLN116     -0.2717
    187  NE2        9.9240   -5.6140    4.3950 N.am  116  GLN116     -0.0878
    188  N         10.5580    0.1560    7.8830 N.am  117  ILE117     -0.1977
    189  CA        11.4480    1.0610    8.6110 C.3   117  ILE117      0.1596
    190  C         11.7340    0.5610   10.0280 C.2   117  ILE117      0.2287
    191  O         12.7930    0.8370   10.5910 O.2   117  ILE117     -0.2864
    192  CB        10.8690    2.4940    8.6850 C.3   117  ILE117      0.0276
    193  CG1        9.6440    2.5560    9.6180 C.3   117  ILE117      0.0022
    194  CG2       10.5170    2.9970    7.2910 C.3   117  ILE117      0.0022
    195  CD1        8.3520    2.0790    8.9840 C.3   117  ILE117      0.0001
    196  N          3.6570   -2.2380   10.1690 N.3   159  ALA159     -0.1231
    197  CA         2.8130   -3.4130   10.3590 C.3   159  ALA159      0.1694
    198  C          3.4720   -4.4110   11.3090 C.2   159  ALA159      0.2591
    199  O          3.1310   -5.5940   11.3150 O.2   159  ALA159     -0.2718
    200  CB         2.5120   -4.0760    9.0220 C.3   159  ALA159      0.0304
    201  N          4.4160   -3.9250   12.1110 N.am  160  LEU160     -0.1980
    202  CA         5.1230   -4.7690   13.0650 C.3   160  LEU160      0.1596
    203  C          5.1490   -4.1150   14.4430 C.2   160  LEU160      0.2287
    204  O          4.9110   -4.7700   15.4580 O.2   160  LEU160     -0.2864
    205  CB         6.5500   -5.0320   12.5790 C.3   160  LEU160      0.0297
    206  CG         6.7120   -5.1100   11.0590 C.3   160  LEU160      0.0022
    207  CD1        7.2430   -3.7950   10.5080 C.3   160  LEU160      0.0001
    208  CD2        7.6350   -6.2590   10.6820 C.3   160  LEU160      0.0001
@<TRIPOS>BOND
     1     7     6   ar
     2     6     8   ar
     3     6     5    1
     4     1     2    1
     5     5     2    1
     6     2     3    1
     7     3     9   am
     8     3     4    2
     9    33    32    1
    10   136   135    1
    11   131   132    1
    12   134   133    2
    13     9    10    1
    14   133   132    1
    15   133   137   am
    16   132   135    1
    17    12    11    2
    18    32    31    1
    19    10    11    1
    20   115   114    1
    21    24    22    1
    22    11    13   am
    23   141   138    1
    24   141   142    1
    25    31    30    1
    26    30    29    1
    27   137   138    1
    28   138   139    1
    29   113   112    2
    30    16    15    2
    31   101   100    2
    32    22    23    1
    33    22    19    1
    34   127   126    2
    35    13    14    1
    36   114   111    1
    37   114   116    1
    38   142   143   ar
    39   142   144   ar
    40   111   112    1
    41   111   110    1
    42   126   125    1
    43    29    26    1
    44   130   128    1
    45   139   148   am
    46   139   140    2
    47   143   145   ar
    48    15    14    1
    49    15    18   am
    50   153   152    1
    51    14    17    1
    52   112   117   am
    53    26    25    1
    54    26    27    1
    55   148   149    1
    56   144   146   ar
    57   100   110   am
    58   100    99    1
    59    18    19    1
    60    19    20    1
    61   151   150    2
    62   102    99    1
    63   102   103    1
    64    20    21    2
    65   145   147   ar
    66   125   128    1
    67   125   124    1
    68   128   129    1
    69   120   119    2
    70   117   118    1
    71   117   123    1
    72   161   162    1
    73   152   149    1
    74   124   119   am
    75   119   118    1
    76    27    34   am
    77    27    28    2
    78   149   150    1
    79    99    98    1
    80   146   147   ar
    81    34    35    1
    82   167   165    1
    83   118   121    1
    84    40    38    1
    85   150   154   am
    86    39    38    1
    87   103   105   ar
    88   103   104   ar
    89   123   122    1
    90    98    91   am
    91   105   107   ar
    92   157   156    2
    93    38    35    1
    94   165   162    1
    95   165   166    1
    96   164   163    2
    97   162   163    1
    98   104   106   ar
    99    35    36    1
   100   156   155    1
   101   154   155    1
   102   121   122    1
   103   163   168   am
   104   107   108   ar
   105   155   158    1
   106    91    90    1
   107    91    92    2
   108   106   108   ar
   109    41    36   am
   110    41    42    1
   111    36    37    2
   112   108   109    1
   113    45    42    1
   114    45    46    1
   115    93    90    1
   116    93    94    1
   117    90    89    1
   118   187   185   am
   119   168   169    1
   120    42    43    1
   121   184   185    1
   122   184   183    1
   123    94    95    1
   124   158   159    1
   125   158   160    1
   126   185   186    2
   127   178   176    1
   128   169   170    1
   129    86    88   ar
   130    86    84   ar
   131   177   176    1
   132    52    54    1
   133    52    51    1
   134   183   180    1
   135    43    44    2
   136    95    97   ar
   137    95    96   ar
   138    88    87   ar
   139   170   172   am
   140   170   171    2
   141   176   173    1
   142   172   173    1
   143    84    83   ar
   144    67    66    2
   145    68    66   am
   146    51    53    1
   147    51    48    1
   148    81    80    2
   149   179   180    1
   150   179   174   am
   151    66    65    1
   152   180   181    1
   153   173   174    1
   154   194   192    1
   155    87    85   ar
   156    47    48    1
   157   174   175    2
   158    83    85   ar
   159    83    82    1
   160   188   181   am
   161   188   189    1
   162    48    49    1
   163   181   182    2
   164    80    79    1
   165    60    59    1
   166    72    71    2
   167    65    62    1
   168    79    82    1
   169    79    78    1
   170   189   192    1
   171   189   190    1
   172   192   193    1
   173    55    49   am
   174    55    56    1
   175    64    63    2
   176   195   193    1
   177   200   197    1
   178    49    50    2
   179    59    56    1
   180    71    78   am
   181    71    70    1
   182    62    63    1
   183    62    61    1
   184    63    69   am
   185    56    57    1
   186   190   191    2
   187   196   197    1
   188   197   198    1
   189   207   206    1
   190    69    70    1
   191   208   206    1
   192    70    73    1
   193   206   205    1
   194    57    58    2
   195    73    74    1
   196   198   199    2
   197   198   201   am
   198   201   202    1
   199    74    75    1
   200   205   202    1
   201    75    76    1
   202   202   203    1
   203    77    76    1
   204   203   204    2
