@<TRIPOS>MOLECULE
tmp/1cf8B00.pdb
 155 154 0 0 0
SMALL
GASTEIGER

@<TRIPOS>ATOM
      1  N        -11.5820  -14.3880   43.6920 N.3    27  TYR27      -0.1241
      2  CA       -11.6820  -13.8160   45.0440 C.3    27  TYR27       0.1605
      3  C        -12.7010  -12.6820   45.0540 C.2    27  TYR27       0.2264
      4  O        -12.6220  -11.7870   44.2250 O.2    27  TYR27      -0.2867
      5  CB       -10.3200  -13.2730   45.4930 C.3    27  TYR27       0.0534
      6  CG       -10.2270  -12.9480   46.9690 C.ar   27  TYR27      -0.0201
      7  CD1      -10.6130  -11.7010   47.4540 C.ar   27  TYR27      -0.0009
      8  CD2       -9.7470  -13.8890   47.8850 C.ar   27  TYR27      -0.0009
      9  CE1      -10.5280  -11.3910   48.8180 C.ar   27  TYR27       0.0417
     10  CE2       -9.6590  -13.5920   49.2540 C.ar   27  TYR27       0.0417
     11  CZ       -10.0510  -12.3370   49.7110 C.ar   27  TYR27       0.1957
     12  OH        -9.9590  -12.0230   51.0520 O.3    27  TYR27      -0.2866
     13  N        -14.7320  -10.0310   50.1260 N.3    31  SER31      -0.1202
     14  CA       -14.2230  -10.9880   51.1010 C.3    31  SER31       0.2020
     15  C        -13.2190  -10.2810   52.0250 C.2    31  SER31       0.2619
     16  O        -13.2710  -10.4280   53.2560 O.2    31  SER31      -0.2717
     17  CB       -13.5530  -12.1690   50.3930 C.3    31  SER31       0.2103
     18  OG       -14.4880  -12.9400   49.6420 O.3    31  SER31      -0.2182
     19  N        -12.3490   -9.4710   51.4240 N.am   32  GLY32      -0.1942
     20  CA       -11.3530   -8.7280   52.1760 C.3    32  GLY32       0.2014
     21  C        -10.4910   -7.8660   51.2630 C.2    32  GLY32       0.2639
     22  O        -10.9050   -7.5200   50.1580 O.2    32  GLY32      -0.2714
     23  N         -9.3220   -7.4570   51.7520 N.am   33  TYR33      -0.1959
     24  CA        -8.3810   -6.6620   50.9690 C.3    33  TYR33       0.1771
     25  C         -8.7600   -5.2380   50.6100 C.2    33  TYR33       0.2619
     26  O         -9.9180   -4.8520   50.6840 O.2    33  TYR33      -0.2715
     27  CB        -8.0330   -7.3990   49.6740 C.3    33  TYR33       0.0574
     28  CG        -7.0410   -8.5180   49.8620 C.ar   33  TYR33      -0.0198
     29  CD1       -5.7340   -8.2420   50.2580 C.ar   33  TYR33      -0.0009
     30  CD2       -7.4020   -9.8480   49.6460 C.ar   33  TYR33      -0.0009
     31  CE1       -4.8080   -9.2490   50.4360 C.ar   33  TYR33       0.0417
     32  CE2       -6.4780  -10.8730   49.8220 C.ar   33  TYR33       0.0417
     33  CZ        -5.1790  -10.5580   50.2190 C.ar   33  TYR33       0.1957
     34  OH        -4.2330  -11.5400   50.4010 O.3    33  TYR33      -0.2866
     35  N         -7.7310   -4.4380   50.3440 N.am   34  ALA34      -0.1977
     36  CA        -7.8880   -3.0620   49.8830 C.3    34  ALA34       0.1597
     37  C         -7.5620   -3.2240   48.3980 C.2    34  ALA34       0.2287
     38  O         -6.6830   -4.0040   48.0270 O.2    34  ALA34      -0.2864
     39  CB        -6.8890   -2.1380   50.5480 C.3    34  ALA34       0.0319
     40  N         -6.2060   -1.3840   45.4310 N.3    36  ASN36      -0.1240
     41  CA        -5.4870   -0.2030   45.0120 C.3    36  ASN36       0.1653
     42  C         -5.3420    0.0140   43.5060 C.2    36  ASN36       0.2266
     43  O         -5.4210   -0.9090   42.6890 O.2    36  ASN36      -0.2867
     44  CB        -4.0940   -0.1960   45.6450 C.3    36  ASN36       0.1155
     45  CG        -4.1320   -0.3320   47.1680 C.2    36  ASN36       0.2627
     46  OD1       -4.1000    0.6600   47.8970 O.2    36  ASN36      -0.2716
     47  ND2       -4.1560   -1.5650   47.6500 N.am   36  ASN36      -0.0877
     48  N         -2.6190    1.8890   41.3630 N.3    38  ILE38      -0.1245
     49  CA        -1.2540    2.3860   41.4700 C.3    38  ILE38       0.1561
     50  C         -0.7420    2.6690   40.0560 C.2    38  ILE38       0.2260
     51  O         -0.9270    1.8400   39.1680 O.2    38  ILE38      -0.2867
     52  CB        -0.3580    1.2770   42.0790 C.3    38  ILE38       0.0252
     53  CG1       -0.9570    0.7760   43.3970 C.3    38  ILE38       0.0019
     54  CG2        1.0800    1.7730   42.2500 C.3    38  ILE38       0.0019
     55  CD1       -0.4580   -0.5860   43.7910 C.3    38  ILE38       0.0001
     56  N          0.9920    5.8510   44.5370 N.3    48  TRP48      -0.1241
     57  CA        -0.1990    5.1940   45.0600 C.3    48  TRP48       0.1605
     58  C         -1.3220    6.2080   44.8680 C.2    48  TRP48       0.2264
     59  O         -1.2290    7.3300   45.3470 O.2    48  TRP48      -0.2867
     60  CB        -0.0270    4.8370   46.5390 C.3    48  TRP48       0.0550
     61  CG        -1.2870    4.3270   47.1630 C.ar   48  TRP48       0.0003
     62  CD1       -1.7610    3.0500   47.1260 C.ar   48  TRP48       0.0946
     63  CD2       -2.2820    5.1080   47.8280 C.ar   48  TRP48       0.0152
     64  NE1       -2.9980    2.9930   47.7100 N.ar   48  TRP48      -0.2442
     65  CE2       -3.3410    4.2430   48.1510 C.ar   48  TRP48       0.0810
     66  CE3       -2.3830    6.4590   48.1720 C.ar   48  TRP48       0.0012
     67  CZ2       -4.4960    4.6850   48.8020 C.ar   48  TRP48       0.0191
     68  CZ3       -3.5300    6.8980   48.8160 C.ar   48  TRP48       0.0001
     69  CH2       -4.5710    6.0130   49.1230 C.ar   48  TRP48       0.0015
     70  N         -7.5590    3.5590   46.9780 N.3    51  TYR51      -0.1241
     71  CA        -8.0880    2.2160   47.1230 C.3    51  TYR51       0.1605
     72  C         -9.5530    2.2410   47.4830 C.2    51  TYR51       0.2264
     73  O        -10.0900    3.2530   47.9210 O.2    51  TYR51      -0.2867
     74  CB        -7.3130    1.4000   48.1680 C.3    51  TYR51       0.0534
     75  CG        -7.4490    1.8330   49.6200 C.ar   51  TYR51      -0.0201
     76  CD1       -8.6790    1.8100   50.2730 C.ar   51  TYR51      -0.0009
     77  CD2       -6.3270    2.1900   50.3570 C.ar   51  TYR51      -0.0009
     78  CE1       -8.7900    2.1270   51.6150 C.ar   51  TYR51       0.0417
     79  CE2       -6.4230    2.5010   51.7030 C.ar   51  TYR51       0.0417
     80  CZ        -7.6590    2.4670   52.3290 C.ar   51  TYR51       0.1957
     81  OH        -7.7580    2.7550   53.6760 O.3    51  TYR51      -0.2866
     82  N        -11.8160   -0.1590   49.7340 N.3    53  ARG53      -0.1231
     83  CA       -11.6920   -1.2840   50.6380 C.3    53  ARG53       0.1694
     84  C        -12.8330   -2.2720   50.4140 C.2    53  ARG53       0.2592
     85  O        -13.8640   -1.9240   49.8350 O.2    53  ARG53      -0.2718
     86  CB       -11.6440   -0.8000   52.0800 C.3    53  ARG53       0.0321
     87  CG       -10.8140   -1.6880   52.9790 C.3    53  ARG53       0.0489
     88  CD       -10.7250   -1.1290   54.3950 C.3    53  ARG53       0.2205
     89  NE       -10.0880    0.1860   54.4290 N.pl3  53  ARG53      -0.0865
     90  CZ       -10.4680    1.1790   55.2300 C.cat  53  ARG53       0.5346
     91  NH1      -11.4840    1.0090   56.0690 N.pl3  53  ARG53       0.1354
     92  NH2       -9.8430    2.3500   55.1860 N.pl3  53  ARG53       0.1354
     93  N        -12.6360   -3.5120   50.8450 N.am   54  TYR54      -0.1976
     94  CA       -13.6530   -4.5460   50.6850 C.3    54  TYR54       0.1639
     95  C        -15.0150   -4.0960   51.1840 C.2    54  TYR54       0.2290
     96  O        -16.0340   -4.4800   50.6220 O.2    54  TYR54      -0.2864
     97  CB       -13.2510   -5.8230   51.4210 C.3    54  TYR54       0.0560
     98  CG       -12.9390   -5.6010   52.8800 C.ar   54  TYR54      -0.0198
     99  CD1      -13.8680   -5.9170   53.8680 C.ar   54  TYR54      -0.0009
    100  CD2      -11.7290   -5.0330   53.2700 C.ar   54  TYR54      -0.0009
    101  CE1      -13.6020   -5.6690   55.2100 C.ar   54  TYR54       0.0417
    102  CE2      -11.4530   -4.7800   54.6050 C.ar   54  TYR54       0.0417
    103  CZ       -12.3930   -5.0980   55.5690 C.ar   54  TYR54       0.1957
    104  OH       -12.1240   -4.8260   56.8860 O.3    54  TYR54      -0.2866
    105  N         -3.9670   -3.3130   42.2750 N.3    97  ALA97      -0.1231
    106  CA        -3.3490   -4.3590   43.0670 C.3    97  ALA97       0.1694
    107  C         -3.8540   -4.4560   44.4890 C.2    97  ALA97       0.2592
    108  O         -4.5390   -3.5650   44.9990 O.2    97  ALA97      -0.2718
    109  CB        -1.8230   -4.1670   43.0680 C.3    97  ALA97       0.0304
    110  N         -3.5360   -5.5850   45.1040 N.am   98  ILE98      -0.1966
    111  CA        -3.8930   -5.8690   46.4870 C.3    98  ILE98       0.1727
    112  C         -2.7040   -6.5970   47.1100 C.2    98  ILE98       0.2617
    113  O         -1.7370   -6.9600   46.4300 O.2    98  ILE98      -0.2715
    114  CB        -5.0960   -6.8160   46.5900 C.3    98  ILE98       0.0290
    115  CG1       -4.7380   -8.1790   45.9770 C.3    98  ILE98       0.0022
    116  CG2       -6.2990   -6.1990   45.9330 C.3    98  ILE98       0.0023
    117  CD1       -5.8210   -9.2070   46.0670 C.3    98  ILE98       0.0001
    118  N         -2.7850   -6.8410   48.4020 N.am   99  GLY99      -0.1940
    119  CA        -1.7030   -7.5500   49.0200 C.3    99  GLY99       0.2014
    120  C         -1.5380   -7.2490   50.4760 C.2    99  GLY99       0.2638
    121  O         -1.9450   -6.2050   50.9860 O.2    99  GLY99      -0.2714
    122  N         -0.9870   -8.2330   51.1540 N.am  100  TYR100     -0.1973
    123  CA        -0.6970   -8.1230   52.5490 C.3   100  TYR100      0.1639
    124  C          0.3580   -9.1680   52.8390 C.2   100  TYR100      0.2290
    125  O          0.2420  -10.3110   52.4030 O.2   100  TYR100     -0.2864
    126  CB        -1.9420   -8.3550   53.4120 C.3   100  TYR100      0.0560
    127  CG        -1.6160   -8.1320   54.8610 C.ar  100  TYR100     -0.0198
    128  CD1       -1.6180   -6.8430   55.4080 C.ar  100  TYR100     -0.0009
    129  CD2       -1.1550   -9.1820   55.6490 C.ar  100  TYR100     -0.0009
    130  CE1       -1.1530   -6.6130   56.7000 C.ar  100  TYR100      0.0417
    131  CE2       -0.6880   -8.9670   56.9310 C.ar  100  TYR100      0.0417
    132  CZ        -0.6840   -7.6880   57.4540 C.ar  100  TYR100      0.1957
    133  OH        -0.1940   -7.5050   58.7240 O.3   100  TYR100     -0.2866
    134  N          1.0650  -10.8590   47.3320 N.3   104  ASP104     -0.1239
    135  CA         0.5890   -9.7040   46.5920 C.3   104  ASP104      0.1674
    136  C          0.2130  -10.0900   45.1760 C.2   104  ASP104      0.2266
    137  O          0.7150  -11.0670   44.6200 O.2   104  ASP104     -0.2867
    138  CB         1.5400   -8.4960   46.6750 C.3   104  ASP104      0.1410
    139  CG         2.6440   -8.5010   45.6410 C.2   104  ASP104      0.3668
    140  OD1        3.0450   -9.5570   45.1060 O.co2 104  ASP104     -0.2456
    141  OD2        3.1530   -7.3980   45.3900 O.co2 104  ASP104     -0.2456
    142  N         -0.7880   -8.1800   41.4640 N.3   106  TRP106     -0.1241
    143  CA        -0.8700   -6.9980   40.6070 C.3   106  TRP106      0.1605
    144  C         -1.4170   -7.3930   39.2510 C.2   106  TRP106      0.2264
    145  O         -1.2910   -8.5370   38.8410 O.2   106  TRP106     -0.2867
    146  CB         0.5130   -6.3880   40.3780 C.3   106  TRP106      0.0550
    147  CG         1.1380   -5.7140   41.5650 C.ar  106  TRP106      0.0003
    148  CD1        1.5210   -6.2990   42.7300 C.ar  106  TRP106      0.0946
    149  CD2        1.5830   -4.3510   41.6350 C.ar  106  TRP106      0.0152
    150  NE1        2.2020   -5.4000   43.5100 N.ar  106  TRP106     -0.2442
    151  CE2        2.2520   -4.1940   42.8640 C.ar  106  TRP106      0.0810
    152  CE3        1.4850   -3.2490   40.7690 C.ar  106  TRP106      0.0012
    153  CZ2        2.8260   -2.9770   43.2570 C.ar  106  TRP106      0.0191
    154  CZ3        2.0550   -2.0420   41.1580 C.ar  106  TRP106      0.0001
    155  CH2        2.7180   -1.9160   42.3940 C.ar  106  TRP106      0.0015
@<TRIPOS>BOND
     1   145   144    2
     2    51    50    2
     3   144   143    1
     4    50    49    1
     5   146   143    1
     6   146   147    1
     7   143   142    1
     8   152   154   ar
     9   152   149   ar
    10   154   155   ar
    11    48    49    1
    12    49    52    1
    13   147   149   ar
    14   147   148   ar
    15   149   151   ar
    16    52    54    1
    17    52    53    1
    18   105   106    1
    19   155   153   ar
    20    43    42    2
    21   148   150   ar
    22   151   153   ar
    23   151   150   ar
    24   106   109    1
    25   106   107    1
    26    53    55    1
    27    42    41    1
    28     1     2    1
    29     4     3    2
    30   107   108    2
    31   107   110   am
    32    56    57    1
    33   137   136    2
    34    58    57    1
    35    58    59    2
    36    41    40    1
    37    41    44    1
    38     2     3    1
    39     2     5    1
    40    57    60    1
    41   110   111    1
    42   140   139   ar
    43   136   135    1
    44   141   139   ar
    45     5     6    1
    46   139   138    1
    47    44    45    1
    48   116   114    1
    49   115   117    1
    50   115   114    1
    51   113   112    2
    52   111   114    1
    53   111   112    1
    54    60    61    1
    55   135   138    1
    56   135   134    1
    57     6     7   ar
    58     6     8   ar
    59    70    71    1
    60   112   118   am
    61    71    72    1
    62    71    74    1
    63    62    61   ar
    64    62    64   ar
    65    61    63   ar
    66    45    47   am
    67    45    46    2
    68     7     9   ar
    69    72    73    2
    70    64    65   ar
    71    63    65   ar
    72    63    66   ar
    73     8    10   ar
    74    38    37    2
    75    65    67   ar
    76    74    75    1
    77    66    68   ar
    78    37    36    1
    79   118   119    1
    80    67    69   ar
    81    68    69   ar
    82     9    11   ar
    83   119   120    1
    84    10    11   ar
    85    75    76   ar
    86    75    77   ar
    87    18    17    1
    88    30    32   ar
    89    30    28   ar
    90    27    28    1
    91    27    24    1
    92    11    12    1
    93    82    83    1
    94    32    33   ar
    95    85    84    2
    96    28    29   ar
    97    36    35    1
    98    36    39    1
    99    13    14    1
   100    22    21    2
   101    33    34    1
   102    33    31   ar
   103    29    31   ar
   104    76    78   ar
   105    35    25   am
   106    77    79   ar
   107    17    14    1
   108    84    83    1
   109    84    93   am
   110   120   121    2
   111   120   122   am
   112    25    26    2
   113    25    24    1
   114    96    95    2
   115    83    86    1
   116    94    93    1
   117    94    95    1
   118    94    97    1
   119    24    23    1
   120    14    15    1
   121   122   123    1
   122    21    23   am
   123    21    20    1
   124    97    98    1
   125    19    15   am
   126    19    20    1
   127    78    80   ar
   128    79    80   ar
   129    15    16    2
   130    86    87    1
   131    80    81    1
   132   125   124    2
   133   123   124    1
   134   123   126    1
   135    98   100   ar
   136    98    99   ar
   137    87    88    1
   138   100   102   ar
   139   126   127    1
   140    99   101   ar
   141    88    89    1
   142    89    90    2
   143   102   103   ar
   144   127   128   ar
   145   127   129   ar
   146    92    90    1
   147   101   103   ar
   148    90    91    1
   149   128   130   ar
   150   103   104    1
   151   129   131   ar
   152   130   132   ar
   153   131   132   ar
   154   132   133    1
