@<TRIPOS>MOLECULE
tmp/1cfaA00.pdb
 100 97 0 0 0
SMALL
GASTEIGER

@<TRIPOS>ATOM
      1  N          9.6820    0.7680   -3.3480 N.3    12  LYS12      -0.1231
      2  CA        10.4350    1.5870   -4.3400 C.3    12  LYS12       0.1693
      3  C          9.5780    2.7620   -4.8150 C.2    12  LYS12       0.2592
      4  O         10.0940    3.7820   -5.2270 O.2    12  LYS12      -0.2718
      5  CB        10.8100    0.7110   -5.5380 C.3    12  LYS12       0.0285
      6  CG        12.2110    0.1350   -5.3300 C.3    12  LYS12       0.0035
      7  CD        12.1080   -1.3560   -5.0060 C.3    12  LYS12       0.0206
      8  CE        12.1850   -2.1670   -6.3000 C.3    12  LYS12       0.1093
      9  NZ        11.0190   -1.8320   -7.1670 N.3    12  LYS12      -0.1314
     10  N          8.2780    2.6400   -4.7630 N.am   13  TYR13      -0.1962
     11  CA         7.4190    3.7720   -5.2150 C.3    13  TYR13       0.1771
     12  C          7.9000    5.0280   -4.4770 C.2    13  TYR13       0.2619
     13  O          7.5370    5.2600   -3.3480 O.2    13  TYR13      -0.2715
     14  CB         5.9350    3.4600   -4.9100 C.3    13  TYR13       0.0574
     15  CG         5.3830    2.5760   -6.0070 C.ar   13  TYR13      -0.0198
     16  CD1        6.1730    1.5280   -6.4810 C.ar   13  TYR13      -0.0009
     17  CD2        4.0960    2.7870   -6.5580 C.ar   13  TYR13      -0.0009
     18  CE1        5.7050    0.6890   -7.4910 C.ar   13  TYR13       0.0417
     19  CE2        3.6400    1.9460   -7.5680 C.ar   13  TYR13       0.0417
     20  CZ         4.4400    0.8990   -8.0330 C.ar   13  TYR13       0.1957
     21  OH         3.9700    0.0700   -9.0250 O.3    13  TYR13      -0.2866
     22  N          8.7550    5.7970   -5.1260 N.am   14  LYS14      -0.1963
     23  CA         9.3640    7.0400   -4.5230 C.3    14  LYS14       0.1728
     24  C          8.9300    7.2540   -3.0680 C.2    14  LYS14       0.2616
     25  O          7.8160    7.6460   -2.7820 O.2    14  LYS14      -0.2715
     26  CB         8.9660    8.2590   -5.3590 C.3    14  LYS14       0.0311
     27  CG        10.2230    8.9410   -5.9000 C.3    14  LYS14       0.0038
     28  CD        11.0570    7.9260   -6.6850 C.3    14  LYS14       0.0206
     29  CE        12.4720    7.8740   -6.1070 C.3    14  LYS14       0.1093
     30  NZ        13.3520    8.8090   -6.8640 N.3    14  LYS14      -0.1314
     31  N          9.8190    6.9930   -2.1460 N.am   15  HIS15      -0.1959
     32  CA         9.4950    7.1650   -0.7010 C.3    15  HIS15       0.1787
     33  C          8.7530    8.4850   -0.4720 C.2    15  HIS15       0.2621
     34  O          8.0120    8.6270    0.4800 O.2    15  HIS15      -0.2715
     35  CB        10.7920    7.1670    0.1120 C.3    15  HIS15       0.0785
     36  CG        11.7000    8.2590   -0.3830 C.ar   15  HIS15       0.0821
     37  ND1       12.6420    8.8570    0.4350 N.ar   15  HIS15      -0.2267
     38  CD2       11.8250    8.8660   -1.6080 C.ar   15  HIS15       0.1154
     39  CE1       13.2900    9.7780   -0.3000 C.ar   15  HIS15       0.1986
     40  NE2       12.8320    9.8260   -1.5530 N.ar   15  HIS15      -0.2212
     41  N          8.9450    9.4520   -1.3300 N.am   16  SER16      -0.1936
     42  CA         8.2460   10.7580   -1.1460 C.3    16  SER16       0.2055
     43  C          6.7920   10.5000   -0.7530 C.2    16  SER16       0.2643
     44  O          6.4130   10.6300    0.3940 O.2    16  SER16      -0.2714
     45  CB         8.2920   11.5490   -2.4540 C.3    16  SER16       0.2130
     46  OG         8.7310   12.8750   -2.1850 O.3    16  SER16      -0.2179
     47  N          5.9790   10.1220   -1.6960 N.am   17  VAL17      -0.1963
     48  CA         4.5500    9.8370   -1.3870 C.3    17  VAL17       0.1727
     49  C          4.1440    8.5550   -2.1120 C.2    17  VAL17       0.2616
     50  O          3.6160    7.6340   -1.5230 O.2    17  VAL17      -0.2715
     51  CB         3.6690   10.9970   -1.8640 C.3    17  VAL17       0.0290
     52  CG1        3.4920   12.0050   -0.7270 C.3    17  VAL17       0.0023
     53  CG2        4.3290   11.6910   -3.0590 C.3    17  VAL17       0.0023
     54  N          4.4060    8.4890   -3.3860 N.am   18  VAL18      -0.1977
     55  CA         4.0580    7.2740   -4.1750 C.3    18  VAL18       0.1596
     56  C          4.3860    6.0090   -3.3720 C.2    18  VAL18       0.2287
     57  O          3.8170    4.9640   -3.5960 O.2    18  VAL18      -0.2864
     58  CB         4.8760    7.2820   -5.4620 C.3    18  VAL18       0.0276
     59  CG1        6.3500    7.3180   -5.0950 C.3    18  VAL18       0.0022
     60  CG2        4.5900    6.0200   -6.2730 C.3    18  VAL18       0.0022
     61  N         -1.8700   11.8020   -5.6510 N.3    46  ARG46      -0.1245
     62  CA        -0.6000   11.0770   -5.9280 C.3    46  ARG46       0.1563
     63  C         -0.7740    9.5880   -5.6250 C.2    46  ARG46       0.2260
     64  O         -0.4660    8.7330   -6.4480 O.2    46  ARG46      -0.2867
     65  CB         0.5150   11.6490   -5.0500 C.3    46  ARG46       0.0307
     66  CG         1.8420   11.5920   -5.8100 C.3    46  ARG46       0.0489
     67  CD         2.2870   13.0110   -6.1710 C.3    46  ARG46       0.2205
     68  NE         2.9750   12.9930   -7.4940 N.pl3  46  ARG46      -0.0865
     69  CZ         3.1860   14.1080   -8.1390 C.cat  46  ARG46       0.5346
     70  NH1        2.7990   15.2460   -7.6290 N.pl3  46  ARG46       0.1354
     71  NH2        3.7880   14.0870   -9.2970 N.pl3  46  ARG46       0.1354
     72  N         -2.7850    7.6760   -8.4430 N.3    49  LYS49      -0.1231
     73  CA        -2.0610    7.2310   -9.6700 C.3    49  LYS49       0.1693
     74  C         -1.0430    6.1490   -9.3030 C.2    49  LYS49       0.2591
     75  O         -1.1240    5.0060   -9.7530 O.2    49  LYS49      -0.2718
     76  CB        -1.3330    8.4260  -10.2900 C.3    49  LYS49       0.0285
     77  CG        -2.2280    9.0790  -11.3440 C.3    49  LYS49       0.0035
     78  CD        -1.4740    9.1700  -12.6720 C.3    49  LYS49       0.0206
     79  CE        -1.4890   10.6160  -13.1730 C.3    49  LYS49       0.1093
     80  NZ        -1.1850   10.6390  -14.6300 N.3    49  LYS49      -0.1314
     81  N         -0.0890    6.4950   -8.4800 N.am   50  ALA50      -0.1980
     82  CA         0.9360    5.4970   -8.0720 C.3    50  ALA50       0.1597
     83  C          0.2500    4.2510   -7.5850 C.2    50  ALA50       0.2287
     84  O          0.4430    3.1540   -8.0790 O.2    50  ALA50      -0.2864
     85  CB         1.7380    6.0330   -6.8920 C.3    50  ALA50       0.0319
     86  N         -1.8820    1.9840  -10.1880 N.3    53  GLU53      -0.1245
     87  CA        -1.2020    0.9450  -11.0010 C.3    53  GLU53       0.1567
     88  C         -0.6230   -0.0910  -10.0410 C.2    53  GLU53       0.2260
     89  O         -0.5240   -1.2590  -10.3560 O.2    53  GLU53      -0.2867
     90  CB        -0.0830    1.5820  -11.8250 C.3    53  GLU53       0.0388
     91  CG        -0.2920    1.2560  -13.3050 C.3    53  GLU53       0.1160
     92  CD         0.2410    2.4040  -14.1630 C.2    53  GLU53       0.3649
     93  OE1       -0.5120    3.3330  -14.4070 O.co2  53  GLU53      -0.2457
     94  OE2        1.3920    2.3360  -14.5610 O.co2  53  GLU53      -0.2457
     95  N          2.2950   -2.7630  -12.7710 N.3    71  CYS71      -0.1235
     96  CA         3.0760   -1.9450  -11.7980 C.3    71  CYS71       0.1677
     97  C          3.1740   -2.6850  -10.4620 C.2    71  CYS71       0.2270
     98  O          3.0510   -2.0360   -9.4370 O.2    71  CYS71      -0.2867
     99  CB         2.3660   -0.6010  -11.5990 C.3    71  CYS71       0.0956
    100  SG         2.6930    0.4570  -13.0350 S.3    71  CYS71      -0.0801
@<TRIPOS>BOND
     1    80    79    1
     2    94    92   ar
     3    93    92   ar
     4    92    91    1
     5    91    90    1
     6    79    78    1
     7   100    99    1
     8    95    96    1
     9    78    77    1
    10    90    87    1
    11    96    99    1
    12    96    97    1
    13    77    76    1
    14    87    86    1
    15    87    88    1
    16    97    98    2
    17    89    88    2
    18    76    73    1
    19    75    74    2
    20    73    74    1
    21    73    72    1
    22    74    81   am
    23    71    69    1
    24    21    20    1
    25    81    82    1
    26    69    70    1
    27    69    68    2
    28    84    83    2
    29    82    83    1
    30    82    85    1
    31    20    19   ar
    32    20    18   ar
    33    19    17   ar
    34    68    67    1
    35    18    16   ar
    36     9     8    1
    37    30    29    1
    38    28    29    1
    39    28    27    1
    40    17    15   ar
    41    16    15   ar
    42    64    63    2
    43     8     7    1
    44    60    58    1
    45    67    66    1
    46    15    14    1
    47    62    61    1
    48    62    63    1
    49    62    65    1
    50    27    26    1
    51    66    65    1
    52     5     6    1
    53     5     2    1
    54    58    59    1
    55    58    55    1
    56    26    23    1
    57     6     7    1
    58     4     3    2
    59    11    14    1
    60    11    10    1
    61    11    12    1
    62    22    23    1
    63    22    12   am
    64     3    10   am
    65     3     2    1
    66    23    24    1
    67    12    13    2
    68     2     1    1
    69    55    54    1
    70    55    56    1
    71    57    56    2
    72    54    49   am
    73    24    25    2
    74    24    31   am
    75    53    51    1
    76    45    46    1
    77    45    42    1
    78    31    32    1
    79    49    50    2
    80    49    48    1
    81    51    48    1
    82    51    52    1
    83    47    48    1
    84    47    43   am
    85    38    40   ar
    86    38    36   ar
    87    40    39   ar
    88    41    42    1
    89    41    33   am
    90    42    43    1
    91    43    44    2
    92    32    33    1
    93    32    35    1
    94    33    34    2
    95    36    35    1
    96    36    37   ar
    97    39    37   ar
