@<TRIPOS>MOLECULE
tmp/1cfbA00.pdb
 84 80 0 0 0
SMALL
GASTEIGER

@<TRIPOS>ATOM
      1  N         93.2750   57.4410   80.6240 N.3    43  ASN43      -0.1225
      2  CA        91.9760   57.8650   81.1210 C.3    43  ASN43       0.1785
      3  C         91.2300   56.5780   81.5060 C.2    43  ASN43       0.2598
      4  O         91.6420   55.4400   81.1290 O.2    43  ASN43      -0.2718
      5  CB        91.1960   58.7390   80.1190 C.3    43  ASN43       0.1169
      6  CG        90.7860   57.9770   78.8920 C.2    43  ASN43       0.2627
      7  OD1       91.4470   57.0160   78.5230 O.2    43  ASN43      -0.2716
      8  ND2       89.7050   58.4130   78.2540 N.am   43  ASN43      -0.0877
      9  N         90.1960   56.7230   82.3300 N.am   44  THR44      -0.1939
     10  CA        89.4070   55.5610   82.7610 C.3    44  THR44       0.2028
     11  C         87.9100   55.8260   82.4730 C.2    44  THR44       0.2642
     12  O         87.5240   56.9490   82.1560 O.2    44  THR44      -0.2714
     13  CB        89.5460   55.2800   84.2970 C.3    44  THR44       0.1808
     14  OG1       88.7620   56.2530   85.0370 O.3    44  THR44      -0.2208
     15  CG2       91.0310   55.3560   84.7400 C.3    44  THR44       0.0379
     16  N         87.0730   54.7920   82.5990 N.am   45  SER45      -0.1949
     17  CA        85.6290   54.9880   82.3570 C.3    45  SER45       0.1924
     18  C         84.9860   55.8310   83.4610 C.2    45  SER45       0.2314
     19  O         83.8810   56.3590   83.2760 O.2    45  SER45      -0.2863
     20  CB        84.9090   53.6460   82.3120 C.3    45  SER45       0.2116
     21  OG        85.5600   52.7800   81.4340 O.3    45  SER45      -0.2180
     22  N         86.3190   59.6280   81.9710 N.3    48  PRO48      -0.2116
     23  CA        86.7860   59.5950   80.5740 C.3    48  PRO48       0.1372
     24  C         87.3090   60.8590   79.9070 C.2    48  PRO48       0.2244
     25  O         88.1410   60.7810   78.9850 O.2    48  PRO48      -0.2868
     26  CB        85.6100   58.9580   79.8270 C.3    48  PRO48       0.0268
     27  CG        84.4100   59.4200   80.6520 C.3    48  PRO48       0.0207
     28  CD        84.8750   59.3120   82.0600 C.3    48  PRO48       0.0892
     29  N         92.5760   63.1310   81.1330 N.3    51  TRP51      -0.1241
     30  CA        93.7670   62.3720   80.7460 C.3    51  TRP51       0.1605
     31  C         94.8120   62.7280   81.7680 C.2    51  TRP51       0.2264
     32  O         95.1420   63.8880   81.9290 O.2    51  TRP51      -0.2867
     33  CB        94.2240   62.7500   79.3350 C.3    51  TRP51       0.0550
     34  CG        93.4260   62.0960   78.2460 C.ar   51  TRP51       0.0003
     35  CD1       92.3540   62.6240   77.5650 C.ar   51  TRP51       0.0946
     36  CD2       93.6220   60.7800   77.7310 C.ar   51  TRP51       0.0152
     37  NE1       91.8770   61.7040   76.6600 N.ar   51  TRP51      -0.2442
     38  CE2       92.6340   60.5640   76.7360 C.ar   51  TRP51       0.0810
     39  CE3       94.5360   59.7520   78.0180 C.ar   51  TRP51       0.0012
     40  CZ2       92.5350   59.3710   76.0270 C.ar   51  TRP51       0.0191
     41  CZ3       94.4400   58.5470   77.3060 C.ar   51  TRP51       0.0001
     42  CH2       93.4450   58.3710   76.3220 C.ar   51  TRP51       0.0015
     43  N         88.6590   50.2960   83.7140 N.3    74  ASN74      -0.1240
     44  CA        88.9260   50.1170   82.2840 C.3    74  ASN74       0.1653
     45  C         89.9270   51.2500   82.0440 C.2    74  ASN74       0.2266
     46  O         89.6860   52.3910   82.4650 O.2    74  ASN74      -0.2867
     47  CB        87.7190   50.4050   81.4160 C.3    74  ASN74       0.1155
     48  CG        86.6290   49.4020   81.6210 C.2    74  ASN74       0.2627
     49  OD1       86.8790   48.2040   81.6380 O.2    74  ASN74      -0.2716
     50  ND2       85.4330   49.9140   81.8850 N.am   74  ASN74      -0.0877
     51  N         92.4930   53.2440   78.9750 N.3    76  THR76      -0.1218
     52  CA        93.0050   53.3880   77.6090 C.3    76  THR76       0.1862
     53  C         94.2000   54.3680   77.7940 C.2    76  THR76       0.2287
     54  O         94.1960   55.2200   78.7140 O.2    76  THR76      -0.2866
     55  CB        92.0030   53.9000   76.5400 C.3    76  THR76       0.1770
     56  OG1       91.4100   55.1220   76.9590 O.3    76  THR76      -0.2211
     57  CG2       90.9310   52.8480   76.2570 C.3    76  THR76       0.0375
     58  N         97.6250   56.7240   75.8410 N.3    78  ARG78      -0.1245
     59  CA        98.1150   57.4250   74.6370 C.3    78  ARG78       0.1563
     60  C         99.5230   57.9520   74.9600 C.2    78  ARG78       0.2260
     61  O         99.9220   58.0370   76.1570 O.2    78  ARG78      -0.2867
     62  CB        97.1660   58.5360   74.1520 C.3    78  ARG78       0.0307
     63  CG        97.0510   59.7420   75.0720 C.3    78  ARG78       0.0489
     64  CD        96.0150   60.7660   74.5850 C.3    78  ARG78       0.2205
     65  NE        96.0760   61.9690   75.4190 N.pl3  78  ARG78      -0.0865
     66  CZ        95.2480   63.0000   75.3190 C.cat  78  ARG78       0.5346
     67  NH1       94.2700   62.9800   74.4410 N.pl3  78  ARG78       0.1354
     68  NH2       95.3980   64.0420   76.1090 N.pl3  78  ARG78       0.1354
     69  N         94.5250   56.8820   71.0410 N.3    93  HIS93      -0.1241
     70  CA        94.5330   56.0550   72.2550 C.3    93  HIS93       0.1621
     71  C         94.5320   54.5570   71.9620 C.2    93  HIS93       0.2264
     72  O         94.1110   54.1250   70.8920 O.2    93  HIS93      -0.2867
     73  CB        93.4360   56.4550   73.2660 C.3    93  HIS93       0.0745
     74  CG        92.0470   56.1720   72.8160 C.ar   93  HIS93       0.0817
     75  ND1       91.2370   57.1300   72.2410 N.ar   93  HIS93      -0.2268
     76  CD2       91.2960   55.0360   72.8720 C.ar   93  HIS93       0.1154
     77  CE1       90.0620   56.6040   71.9570 C.ar   93  HIS93       0.1986
     78  NE2       90.0760   55.3280   72.3310 N.ar   93  HIS93      -0.2212
     79  N         91.3710   49.1950   75.0430 N.3    96  SER96      -0.1217
     80  CA        91.2890   49.2370   76.5170 C.3    96  SER96       0.1889
     81  C         91.7250   47.9760   77.2250 C.2    96  SER96       0.2288
     82  O         91.6750   46.9030   76.6450 O.2    96  SER96      -0.2866
     83  CB        89.8570   49.5480   76.9490 C.3    96  SER96       0.2089
     84  OG        89.0200   48.4830   76.5560 O.3    96  SER96      -0.2183
@<TRIPOS>BOND
     1    72    71    2
     2    69    70    1
     3    77    75   ar
     4    77    78   ar
     5    71    70    1
     6    75    74   ar
     7    70    73    1
     8    78    76   ar
     9    74    76   ar
    10    74    73    1
    11    62    59    1
    12    62    63    1
    13    67    66    1
    14    64    63    1
    15    64    65    1
    16    59    60    1
    17    59    58    1
    18    60    61    2
    19    79    80    1
    20    66    65    2
    21    66    68    1
    22    40    42   ar
    23    40    38   ar
    24    57    55    1
    25    42    41   ar
    26    80    83    1
    27    80    81    1
    28    55    56    1
    29    55    52    1
    30    84    83    1
    31    82    81    2
    32    37    38   ar
    33    37    35   ar
    34    38    36   ar
    35    41    39   ar
    36    35    34   ar
    37    52    53    1
    38    52    51    1
    39    36    39   ar
    40    36    34   ar
    41    53    54    2
    42    34    33    1
    43     8     6   am
    44     7     6    2
    45     6     5    1
    46    25    24    2
    47    33    30    1
    48    26    23    1
    49    26    27    1
    50    24    23    1
    51     5     2    1
    52    23    22    1
    53     1     2    1
    54    27    28    1
    55    30    29    1
    56    30    31    1
    57     2     3    1
    58     4     3    2
    59    47    48    1
    60    47    44    1
    61    21    20    1
    62     3     9   am
    63    48    49    2
    64    48    50   am
    65    31    32    2
    66    22    28    1
    67    45    44    1
    68    45    46    2
    69    12    11    2
    70    44    43    1
    71    20    17    1
    72     9    10    1
    73    17    16    1
    74    17    18    1
    75    11    16   am
    76    11    10    1
    77    10    13    1
    78    19    18    2
    79    13    15    1
    80    13    14    1
