@<TRIPOS>MOLECULE
tmp/1cfnB00.pdb
 138 135 0 0 0
SMALL
GASTEIGER

@<TRIPOS>ATOM
      1  N         58.2100   34.8020  206.4940 N.3     1  GLN1       -0.1245
      2  CA        56.9730   35.2430  207.1710 C.3     1  GLN1        0.1566
      3  C         56.3760   36.5150  206.5890 C.2     1  GLN1        0.2260
      4  O         55.2720   36.3950  206.0150 O.2     1  GLN1       -0.2867
      5  CB        57.1630   35.3000  208.6880 C.3     1  GLN1        0.0367
      6  CG        56.2710   34.2950  209.4280 C.3     1  GLN1        0.0905
      7  CD        54.7880   34.5550  209.1780 C.2     1  GLN1        0.2608
      8  OE1       54.0600   33.6890  208.6680 O.2     1  GLN1       -0.2717
      9  NE2       54.3770   35.7760  209.5330 N.am    1  GLN1       -0.0878
     10  N         66.9110   30.8110  202.9130 N.3    31  ASP31      -0.1225
     11  CA        66.4580   29.4360  203.0950 C.3    31  ASP31       0.1805
     12  C         65.3390   28.9900  202.1720 C.2    31  ASP31       0.2598
     13  O         64.8910   27.8390  202.2370 O.2    31  ASP31      -0.2718
     14  CB        66.0190   29.2040  204.5300 C.3    31  ASP31       0.1424
     15  CG        67.1910   29.1510  205.5180 C.2    31  ASP31       0.3668
     16  OD1       68.2310   28.5100  205.2400 O.co2  31  ASP31      -0.2456
     17  OD2       66.9240   29.8120  206.5570 O.co2  31  ASP31      -0.2456
     18  N         64.7820   29.9030  201.3870 N.am   32  TYR32      -0.1962
     19  CA        63.6510   29.6250  200.5180 C.3    32  TYR32       0.1771
     20  C         63.8810   29.9960  199.0510 C.2    32  TYR32       0.2619
     21  O         64.3600   31.0600  198.6770 O.2    32  TYR32      -0.2715
     22  CB        62.4480   30.4210  201.0480 C.3    32  TYR32       0.0574
     23  CG        61.8950   29.9600  202.3730 C.ar   32  TYR32      -0.0198
     24  CD1       60.9360   28.9610  202.4490 C.ar   32  TYR32      -0.0009
     25  CD2       62.3700   30.4890  203.5670 C.ar   32  TYR32      -0.0009
     26  CE1       60.4540   28.5140  203.6590 C.ar   32  TYR32       0.0417
     27  CE2       61.9230   30.0360  204.7920 C.ar   32  TYR32       0.0417
     28  CZ        60.9310   29.0830  204.8300 C.ar   32  TYR32       0.1957
     29  OH        60.4560   28.6420  206.0360 O.3    32  TYR32      -0.2866
     30  N         63.4240   29.1440  198.1560 N.am   33  GLU33      -0.1977
     31  CA        63.3220   29.3830  196.7390 C.3    33  GLU33       0.1602
     32  C         62.3230   30.4920  196.4310 C.2    33  GLU33       0.2287
     33  O         61.2690   30.6510  197.0430 O.2    33  GLU33      -0.2864
     34  CB        62.7590   28.1570  196.0060 C.3    33  GLU33       0.0415
     35  CG        63.6580   26.9740  195.8900 C.3    33  GLU33       0.1163
     36  CD        63.0930   25.5930  195.7080 C.2    33  GLU33       0.3649
     37  OE1       61.9510   25.4040  195.2670 O.co2  33  GLU33      -0.2457
     38  OE2       63.8310   24.6100  196.0000 O.co2  33  GLU33      -0.2457
     39  N         60.0670   31.7250  193.1860 N.3    35  HIS35      -0.1241
     40  CA        59.6150   31.3640  191.8450 C.3    35  HIS35       0.1621
     41  C         58.8610   32.4680  191.1280 C.2    35  HIS35       0.2264
     42  O         58.1890   33.3490  191.6350 O.2    35  HIS35      -0.2867
     43  CB        58.7800   30.1050  191.7860 C.3    35  HIS35       0.0745
     44  CG        59.5160   28.8590  192.1770 C.ar   35  HIS35       0.0817
     45  ND1       60.0170   28.6550  193.4480 N.ar   35  HIS35      -0.2268
     46  CD2       59.8290   27.7340  191.5220 C.ar   35  HIS35       0.1154
     47  CE1       60.5880   27.4800  193.5500 C.ar   35  HIS35       0.1986
     48  NE2       60.5000   26.8870  192.3820 N.ar   35  HIS35      -0.2212
     49  N         54.3460   28.7620  185.2120 N.3    47  TRP47      -0.1241
     50  CA        55.6100   28.8530  185.8810 C.3    47  TRP47       0.1605
     51  C         56.7430   29.1760  184.9100 C.2    47  TRP47       0.2264
     52  O         56.9530   28.3780  183.9670 O.2    47  TRP47      -0.2867
     53  CB        55.8420   27.4760  186.5450 C.3    47  TRP47       0.0550
     54  CG        57.1380   27.3820  187.2860 C.ar   47  TRP47       0.0003
     55  CD1       57.5360   28.1080  188.3700 C.ar   47  TRP47       0.0946
     56  CD2       58.2230   26.5050  186.9630 C.ar   47  TRP47       0.0152
     57  NE1       58.7990   27.7370  188.7530 N.ar   47  TRP47      -0.2442
     58  CE2       59.2430   26.7510  187.9110 C.ar   47  TRP47       0.0810
     59  CE3       58.4380   25.5330  185.9960 C.ar   47  TRP47       0.0012
     60  CZ2       60.4510   26.0610  187.8880 C.ar   47  TRP47       0.0191
     61  CZ3       59.6390   24.8510  185.9850 C.ar   47  TRP47       0.0001
     62  CH2       60.6380   25.1070  186.9220 C.ar   47  TRP47       0.0015
     63  N         62.6180   29.2790  188.8980 N.3    50  GLY50      -0.1225
     64  CA        62.9110   29.6700  190.2490 C.3    50  GLY50       0.1811
     65  C         64.3720   29.6550  190.6520 C.2    50  GLY50       0.2280
     66  O         65.2040   28.9030  190.1610 O.2    50  GLY50      -0.2866
     67  N         67.1760   29.5290  194.1250 N.3    52  HIS52      -0.1241
     68  CA        67.4210   29.2270  195.5380 C.3    52  HIS52       0.1621
     69  C         68.5510   30.1960  195.9130 C.2    52  HIS52       0.2264
     70  O         69.6800   29.9380  195.5050 O.2    52  HIS52      -0.2867
     71  CB        67.9440   27.8190  195.8210 C.3    52  HIS52       0.0745
     72  CG        68.0590   27.5570  197.2980 C.ar   52  HIS52       0.0817
     73  ND1       68.7340   28.4160  198.1600 N.ar   52  HIS52      -0.2268
     74  CD2       67.4830   26.5920  198.0660 C.ar   52  HIS52       0.1154
     75  CE1       68.5440   28.0080  199.3940 C.ar   52  HIS52       0.1986
     76  NE2       67.8160   26.9090  199.3630 N.ar   52  HIS52      -0.2212
     77  N         72.0150   28.4110  197.8370 N.3    55  SER55      -0.1217
     78  CA        72.8800   27.7490  196.8930 C.3    55  SER55       0.1889
     79  C         73.0230   28.3600  195.5140 C.2    55  SER55       0.2288
     80  O         73.9330   27.9100  194.7860 O.2    55  SER55      -0.2866
     81  CB        72.3050   26.3380  196.6230 C.3    55  SER55       0.2089
     82  OG        71.1850   26.5100  195.7620 O.3    55  SER55      -0.2183
     83  N         71.1760   27.7580  193.0230 N.3    57  GLY57      -0.1210
     84  CA        70.6290   26.7850  192.1020 C.3    57  GLY57       0.1956
     85  C         69.3460   27.3710  191.5190 C.2    57  GLY57       0.2613
     86  O         68.5570   28.0340  192.1970 O.2    57  GLY57      -0.2717
     87  N         69.1860   27.1210  190.2310 N.am   58  THR58      -0.1938
     88  CA        68.0400   27.6220  189.4910 C.3    58  THR58       0.2028
     89  C         67.3790   26.4930  188.7340 C.2    58  THR58       0.2642
     90  O         68.0050   25.4650  188.5420 O.2    58  THR58      -0.2714
     91  CB        68.5160   28.6500  188.4480 C.3    58  THR58       0.1808
     92  OG1       69.4770   27.9910  187.6130 O.3    58  THR58      -0.2208
     93  CG2       69.0890   29.9150  189.0530 C.3    58  THR58       0.0379
     94  N         66.1580   26.6740  188.3100 N.am   59  ALA59      -0.1977
     95  CA        65.4320   25.7120  187.4860 C.3    59  ALA59       0.1597
     96  C         64.4990   26.5380  186.5840 C.2    59  ALA59       0.2287
     97  O         64.0840   27.6490  186.9520 O.2    59  ALA59      -0.2864
     98  CB        64.7740   24.6730  188.3350 C.3    59  ALA59       0.0319
     99  N         56.6340   32.5350  196.9690 N.3    98  ARG98      -0.1231
    100  CA        57.5130   31.6790  197.7830 C.3    98  ARG98       0.1694
    101  C         56.8380   30.3240  197.8280 C.2    98  ARG98       0.2592
    102  O         57.2910   29.3810  198.4820 O.2    98  ARG98      -0.2718
    103  CB        57.8150   32.1870  199.1780 C.3    98  ARG98       0.0321
    104  CG        59.0970   31.6400  199.7820 C.3    98  ARG98       0.0489
    105  CD        59.2800   32.0230  201.2420 C.3    98  ARG98       0.2205
    106  NE        58.3440   31.3550  202.1630 N.pl3  98  ARG98      -0.0865
    107  CZ        58.2680   31.6280  203.4670 C.cat  98  ARG98       0.5346
    108  NH1       59.1090   32.5340  203.9750 N.pl3  98  ARG98       0.1354
    109  NH2       57.3670   31.0510  204.2310 N.pl3  98  ARG98       0.1354
    110  N         55.7140   30.2540  197.1230 N.am   99  LYS99      -0.1966
    111  CA        54.8300   29.1140  197.0040 C.3    99  LYS99       0.1728
    112  C         53.6500   29.3030  197.9710 C.2    99  LYS99       0.2616
    113  O         52.4820   29.0090  197.6810 O.2    99  LYS99      -0.2715
    114  CB        55.4730   27.7610  197.1800 C.3    99  LYS99       0.0311
    115  CG        56.3740   27.2630  196.0660 C.3    99  LYS99       0.0038
    116  CD        57.1740   26.0380  196.4780 C.3    99  LYS99       0.0206
    117  CE        58.6170   26.1450  196.0210 C.3    99  LYS99       0.1093
    118  NZ        59.3580   24.8570  195.9090 N.3    99  LYS99      -0.1314
    119  N         53.9510   29.8610  199.1350 N.am  100  ASP100     -0.1957
    120  CA        52.9170   30.1510  200.1300 C.3   100  ASP100      0.1840
    121  C         52.6790   31.6410  200.0490 C.2   100  ASP100      0.2622
    122  O         51.5350   31.9950  199.8310 O.2   100  ASP100     -0.2715
    123  CB        53.3210   29.6380  201.5020 C.3   100  ASP100      0.1450
    124  CG        54.6550   30.2140  201.9770 C.2   100  ASP100      0.3671
    125  OD1       55.3680   30.9790  201.2660 O.co2 100  ASP100     -0.2456
    126  OD2       54.9690   29.8380  203.1300 O.co2 100  ASP100     -0.2456
    127  N         53.6860   32.4880  200.0710 N.am  101  TYR101     -0.1974
    128  CA        53.4910   33.9160  199.8720 C.3   101  TYR101      0.1639
    129  C         53.5690   34.3260  198.3990 C.2   101  TYR101      0.2290
    130  O         54.3950   33.7790  197.6490 O.2   101  TYR101     -0.2864
    131  CB        54.5560   34.7560  200.6040 C.3   101  TYR101      0.0560
    132  CG        54.6700   34.4660  202.0800 C.ar  101  TYR101     -0.0198
    133  CD1       53.5270   34.4480  202.8710 C.ar  101  TYR101     -0.0009
    134  CD2       55.9030   34.2080  202.6820 C.ar  101  TYR101     -0.0009
    135  CE1       53.6000   34.1720  204.2190 C.ar  101  TYR101      0.0417
    136  CE2       55.9830   33.9310  204.0320 C.ar  101  TYR101      0.0417
    137  CZ        54.8240   33.9020  204.7760 C.ar  101  TYR101      0.1957
    138  OH        54.8720   33.6400  206.1380 O.3   101  TYR101     -0.2866
@<TRIPOS>BOND
     1    52    51    2
     2    51    50    1
     3    49    50    1
     4    50    53    1
     5    61    59   ar
     6    61    62   ar
     7    59    56   ar
     8    53    54    1
     9    96    97    2
    10    96    95    1
    11    62    60   ar
    12    56    54   ar
    13    56    58   ar
    14    54    55   ar
    15    95    94    1
    16    95    98    1
    17    92    91    1
    18    60    58   ar
    19    58    57   ar
    20    94    89   am
    21    55    57   ar
    22    91    93    1
    23    91    88    1
    24    90    89    2
    25    89    88    1
    26    63    64    1
    27    88    87    1
    28    66    65    2
    29    87    85   am
    30    64    65    1
    31    41    42    2
    32    41    40    1
    33    85    84    1
    34    85    86    2
    35    46    44   ar
    36    46    48   ar
    37    43    40    1
    38    43    44    1
    39    40    39    1
    40    84    83    1
    41    44    45   ar
    42    48    47   ar
    43    45    47   ar
    44    67    68    1
    45    80    79    2
    46    37    36   ar
    47    70    69    2
    48    79    78    1
    49    68    71    1
    50    68    69    1
    51    36    35    1
    52    36    38   ar
    53    82    81    1
    54    71    72    1
    55    35    34    1
    56   118   117    1
    57    34    31    1
    58   117   116    1
    59   115   116    1
    60   115   114    1
    61    32    31    1
    62    32    33    2
    63    81    78    1
    64    31    30    1
    65    78    77    1
    66    99   100    1
    67   111   110    1
    68   111   114    1
    69   111   112    1
    70   110   101   am
    71    72    74   ar
    72    72    73   ar
    73   130   129    2
    74   113   112    2
    75   100   101    1
    76   100   103    1
    77   101   102    2
    78   112   119   am
    79    74    76   ar
    80    30    20   am
    81    73    75   ar
    82   129   128    1
    83    21    20    2
    84    20    19    1
    85   119   120    1
    86   103   104    1
    87    76    75   ar
    88   104   105    1
    89   122   121    2
    90   128   127    1
    91   128   131    1
    92   121   127   am
    93   121   120    1
    94   120   123    1
    95    19    22    1
    96    19    18    1
    97   131   132    1
    98    22    23    1
    99   105   106    1
   100   125   124   ar
   101    18    12   am
   102   123   124    1
   103   124   126   ar
   104   132   134   ar
   105   132   133   ar
   106   106   107    2
   107    12    13    2
   108    12    11    1
   109    23    24   ar
   110    23    25   ar
   111    24    26   ar
   112   134   136   ar
   113   133   135   ar
   114    10    11    1
   115    11    14    1
   116   107   108    1
   117   107   109    1
   118    25    27   ar
   119    26    28   ar
   120   136   137   ar
   121   135   137   ar
   122    14    15    1
   123   137   138    1
   124    27    28   ar
   125    28    29    1
   126    16    15   ar
   127    15    17   ar
   128     4     3    2
   129     1     2    1
   130     3     2    1
   131     2     5    1
   132     8     7    2
   133     5     6    1
   134     7     6    1
   135     7     9   am
