@<TRIPOS>MOLECULE
tmp/1cfsB00.pdb
 111 108 0 0 0
SMALL
GASTEIGER

@<TRIPOS>ATOM
      1  N         65.2820   56.6680   67.8000 N.3    31  ASP31      -0.1225
      2  CA        63.8700   57.0200   67.7900 C.3    31  ASP31       0.1805
      3  C         63.2320   57.2670   66.4100 C.2    31  ASP31       0.2598
      4  O         62.0480   57.6090   66.3910 O.2    31  ASP31      -0.2718
      5  CB        63.7990   58.3340   68.5690 C.3    31  ASP31       0.1424
      6  CG        63.4920   58.1330   70.0240 C.2    31  ASP31       0.3668
      7  OD1       63.5030   57.0440   70.6210 O.co2  31  ASP31      -0.2456
      8  OD2       63.1990   59.2120   70.5940 O.co2  31  ASP31      -0.2456
      9  N         64.0300   57.2980   65.3350 N.am   32  TYR32      -0.1962
     10  CA        63.6280   57.7540   64.0350 C.3    32  TYR32       0.1771
     11  C         64.1510   56.8060   62.9690 C.2    32  TYR32       0.2619
     12  O         65.3160   56.4520   62.8770 O.2    32  TYR32      -0.2715
     13  CB        64.1240   59.1890   63.8420 C.3    32  TYR32       0.0574
     14  CG        63.4760   60.3350   64.5360 C.ar   32  TYR32      -0.0198
     15  CD1       62.3690   60.8860   63.9940 C.ar   32  TYR32      -0.0009
     16  CD2       63.9690   60.8550   65.7320 C.ar   32  TYR32      -0.0009
     17  CE1       61.7170   61.9410   64.6230 C.ar   32  TYR32       0.0417
     18  CE2       63.3330   61.8920   66.3910 C.ar   32  TYR32       0.0417
     19  CZ        62.2000   62.4390   65.8130 C.ar   32  TYR32       0.1957
     20  OH        61.5520   63.4650   66.4220 O.3    32  TYR32      -0.2866
     21  N         63.3020   56.3420   62.0690 N.am   33  GLU33      -0.1977
     22  CA        63.6230   55.4320   60.9900 C.3    33  GLU33       0.1602
     23  C         64.6450   56.0220   60.0310 C.2    33  GLU33       0.2287
     24  O         64.5420   57.2200   59.6910 O.2    33  GLU33      -0.2864
     25  CB        62.3270   55.1490   60.2100 C.3    33  GLU33       0.0415
     26  CG        61.5090   54.0640   60.8810 C.3    33  GLU33       0.1163
     27  CD        60.2380   53.8270   60.1220 C.2    33  GLU33       0.3649
     28  OE1       60.0460   54.4680   59.0700 O.co2  33  GLU33      -0.2457
     29  OE2       59.4700   52.9800   60.6150 O.co2  33  GLU33      -0.2457
     30  N         65.8850   55.5000   56.1180 N.3    35  HIS35      -0.1241
     31  CA        65.6850   54.7650   54.8730 C.3    35  HIS35       0.1621
     32  C         66.7240   55.1340   53.8440 C.2    35  HIS35       0.2264
     33  O         67.3990   56.1070   53.8440 O.2    35  HIS35      -0.2867
     34  CB        64.3940   54.8620   54.1090 C.3    35  HIS35       0.0745
     35  CG        63.2000   54.8200   55.0100 C.ar   35  HIS35       0.0817
     36  ND1       62.2390   53.8550   54.9070 N.ar   35  HIS35      -0.2268
     37  CD2       62.8410   55.5930   56.0630 C.ar   35  HIS35       0.1154
     38  CE1       61.2980   54.0300   55.7980 C.ar   35  HIS35       0.1986
     39  NE2       61.6630   55.0880   56.5090 N.ar   35  HIS35      -0.2212
     40  N         64.2520   50.3670   54.7360 N.3    50  GLY50      -0.1210
     41  CA        64.3310   51.1000   55.9700 C.3    50  GLY50       0.1956
     42  C         64.7510   50.3130   57.2040 C.2    50  GLY50       0.2612
     43  O         64.5150   49.1230   57.4500 O.2    50  GLY50      -0.2717
     44  N         65.3360   51.0500   58.1490 N.am   51  ILE51      -0.1965
     45  CA        65.6920   50.4160   59.4060 C.3    51  ILE51       0.1727
     46  C         65.1250   51.2110   60.5650 C.2    51  ILE51       0.2616
     47  O         64.9190   52.3940   60.3510 O.2    51  ILE51      -0.2715
     48  CB        67.2020   50.2130   59.5080 C.3    51  ILE51       0.0290
     49  CG1       67.4830   49.4210   60.7970 C.3    51  ILE51       0.0022
     50  CG2       67.9370   51.5350   59.3670 C.3    51  ILE51       0.0023
     51  CD1       68.7220   48.5750   60.6570 C.3    51  ILE51       0.0001
     52  N         64.8220   50.5560   61.6770 N.am   52  HIS52      -0.1973
     53  CA        64.4700   51.2920   62.9000 C.3    52  HIS52       0.1656
     54  C         65.6440   51.0710   63.8610 C.2    52  HIS52       0.2291
     55  O         65.8540   49.9860   64.3940 O.2    52  HIS52      -0.2864
     56  CB        63.1490   50.8810   63.5210 C.3    52  HIS52       0.0771
     57  CG        62.6400   51.7590   64.6170 C.ar   52  HIS52       0.0820
     58  ND1       63.1530   51.7300   65.9170 N.ar   52  HIS52      -0.2267
     59  CD2       61.6780   52.7000   64.6190 C.ar   52  HIS52       0.1154
     60  CE1       62.5100   52.6150   66.6540 C.ar   52  HIS52       0.1986
     61  NE2       61.6110   53.2080   65.9000 N.ar   52  HIS52      -0.2212
     62  N         64.2460   49.7150   67.4640 N.3    55  SER55      -0.1217
     63  CA        63.6900   48.3800   67.5230 C.3    55  SER55       0.1889
     64  C         64.4620   47.3320   66.7390 C.2    55  SER55       0.2288
     65  O         64.1590   46.1320   66.8070 O.2    55  SER55      -0.2866
     66  CB        62.2980   48.4340   66.8760 C.3    55  SER55       0.2089
     67  OG        62.4730   48.5780   65.4540 O.3    55  SER55      -0.2183
     68  N         63.9980   46.8130   63.6080 N.3    57  GLY57      -0.1210
     69  CA        63.1120   46.3440   62.5740 C.3    57  GLY57       0.1956
     70  C         63.6450   46.9180   61.2560 C.2    57  GLY57       0.2613
     71  O         64.2740   47.9750   61.2230 O.2    57  GLY57      -0.2717
     72  N         63.3720   46.1800   60.1890 N.am   58  THR58      -0.1938
     73  CA        63.7780   46.5010   58.8320 C.3    58  THR58       0.2028
     74  C         62.6760   46.1990   57.8200 C.2    58  THR58       0.2642
     75  O         61.9320   45.2320   57.9300 O.2    58  THR58      -0.2714
     76  CB        64.9420   45.5970   58.3820 C.3    58  THR58       0.1808
     77  OG1       64.5670   44.2370   58.6690 O.3    58  THR58      -0.2208
     78  CG2       66.2400   45.9870   59.0660 C.3    58  THR58       0.0379
     79  N         62.6210   46.9910   56.7800 N.am   59  ALA59      -0.1977
     80  CA        61.6620   46.8320   55.6930 C.3    59  ALA59       0.1597
     81  C         62.5290   46.9830   54.4320 C.2    59  ALA59       0.2287
     82  O         63.3490   47.8940   54.3210 O.2    59  ALA59      -0.2864
     83  CB        60.4960   47.7970   55.7290 C.3    59  ALA59       0.0319
     84  N         65.9180   60.6270   56.5430 N.3    98  ARG98      -0.1231
     85  CA        65.1240   60.4060   57.7450 C.3    98  ARG98       0.1694
     86  C         63.7330   60.9100   57.4520 C.2    98  ARG98       0.2592
     87  O         62.8580   61.2900   58.2050 O.2    98  ARG98      -0.2718
     88  CB        65.8200   61.0490   58.9320 C.3    98  ARG98       0.0321
     89  CG        65.1570   60.9080   60.3100 C.3    98  ARG98       0.0489
     90  CD        64.6130   62.2980   60.6060 C.3    98  ARG98       0.2205
     91  NE        65.1050   62.8680   61.8160 N.pl3  98  ARG98      -0.0865
     92  CZ        64.9750   64.0510   62.3670 C.cat  98  ARG98       0.5346
     93  NH1       64.3530   65.0640   61.8030 N.pl3  98  ARG98       0.1354
     94  NH2       65.5460   64.1460   63.5580 N.pl3  98  ARG98       0.1354
     95  N         63.4190   60.9880   56.1950 N.am   99  LYS99      -0.1966
     96  CA        62.2360   61.4290   55.4880 C.3    99  LYS99       0.1728
     97  C         62.1280   62.9420   55.4430 C.2    99  LYS99       0.2616
     98  O         61.9480   63.4230   54.3390 O.2    99  LYS99      -0.2715
     99  CB        60.9570   60.7580   55.9600 C.3    99  LYS99       0.0311
    100  CG        60.9090   59.2760   55.6410 C.3    99  LYS99       0.0038
    101  CD        59.4880   58.7690   55.6910 C.3    99  LYS99       0.0206
    102  CE        58.9730   58.7830   57.1340 C.3    99  LYS99       0.1093
    103  NZ        59.0540   57.4140   57.7140 N.3    99  LYS99      -0.1314
    104  N         62.2880   63.6650   56.5480 N.am  100  ASP100     -0.1971
    105  CA        62.2970   65.1290   56.4830 C.3   100  ASP100      0.1709
    106  C         63.6500   65.7100   56.0440 C.2   100  ASP100      0.2293
    107  O         63.7530   66.7400   55.3910 O.2   100  ASP100     -0.2864
    108  CB        61.9100   65.7730   57.8030 C.3   100  ASP100      0.1436
    109  CG        62.5980   65.2410   59.0320 C.2   100  ASP100      0.3671
    110  OD1       63.2340   64.1810   58.9690 O.co2 100  ASP100     -0.2456
    111  OD2       62.5110   65.8550   60.1150 O.co2 100  ASP100     -0.2456
@<TRIPOS>BOND
     1    32    33    2
     2    32    31    1
     3    34    31    1
     4    34    35    1
     5    82    81    2
     6    98    97    2
     7    81    80    1
     8    40    41    1
     9    31    30    1
    10    36    35   ar
    11    36    38   ar
    12    35    37   ar
    13   107   106    2
    14    97    96    1
    15    97   104   am
    16    96    99    1
    17    96    95    1
    18   100   101    1
    19   100    99    1
    20   101   102    1
    21    80    83    1
    22    80    79    1
    23    38    39   ar
    24    41    42    1
    25   106   105    1
    26    37    39   ar
    27    95    86   am
    28   105   104    1
    29   105   108    1
    30    84    85    1
    31    79    74   am
    32   102   103    1
    33    42    43    2
    34    42    44   am
    35    86    85    1
    36    86    87    2
    37    85    88    1
    38   108   109    1
    39    74    75    2
    40    74    73    1
    41    44    45    1
    42    76    77    1
    43    76    73    1
    44    76    78    1
    45    73    72    1
    46    88    89    1
    47   110   109   ar
    48   109   111   ar
    49    28    27   ar
    50    50    48    1
    51    45    48    1
    52    45    46    1
    53    48    49    1
    54    24    23    2
    55    23    22    1
    56    27    29   ar
    57    27    26    1
    58    72    70   am
    59    25    26    1
    60    25    22    1
    61    89    90    1
    62    47    46    2
    63    46    52   am
    64    90    91    1
    65    51    49    1
    66    22    21    1
    67    71    70    2
    68    70    69    1
    69    52    53    1
    70    93    92    1
    71    91    92    2
    72    21    11   am
    73    92    94    1
    74    69    68    1
    75    12    11    2
    76    53    56    1
    77    53    54    1
    78    11    10    1
    79    56    57    1
    80    13    10    1
    81    13    14    1
    82    54    55    2
    83    15    14   ar
    84    15    17   ar
    85    10     9    1
    86    14    16   ar
    87    57    59   ar
    88    57    58   ar
    89    59    61   ar
    90    17    19   ar
    91     9     3   am
    92    67    66    1
    93    16    18   ar
    94    19    18   ar
    95    19    20    1
    96    61    60   ar
    97    58    60   ar
    98     4     3    2
    99     3     2    1
   100    64    65    2
   101    64    63    1
   102    66    63    1
   103    62    63    1
   104     2     1    1
   105     2     5    1
   106     5     6    1
   107     6     8   ar
   108     6     7   ar
