@<TRIPOS>MOLECULE
tmp/1cftB00.pdb
 85 82 0 0 0
SMALL
GASTEIGER

@<TRIPOS>ATOM
      1  N          7.6940   49.3380  152.8010 N.3    31  ASP31      -0.1225
      2  CA         6.2770   49.1040  153.0520 C.3    31  ASP31       0.1805
      3  C          5.3150   49.7760  152.1010 C.2    31  ASP31       0.2598
      4  O          4.0880   49.5910  152.1990 O.2    31  ASP31      -0.2718
      5  CB         5.9650   49.4940  154.5010 C.3    31  ASP31       0.1424
      6  CG         6.4840   48.5150  155.5570 C.2    31  ASP31       0.3668
      7  OD1        6.6190   47.2790  155.3560 O.co2  31  ASP31      -0.2456
      8  OD2        6.7830   49.0400  156.6600 O.co2  31  ASP31      -0.2456
      9  N          5.7510   50.7260  151.2740 N.am   32  TYR32      -0.1962
     10  CA         4.9030   51.5050  150.3960 C.3    32  TYR32       0.1771
     11  C          5.3110   51.4830  148.9270 C.2    32  TYR32       0.2622
     12  O          6.4720   51.4460  148.5700 O.2    32  TYR32      -0.2715
     13  CB         4.8780   52.9890  150.8230 C.3    32  TYR32       0.0574
     14  CG         4.3370   53.1390  152.2290 C.ar   32  TYR32      -0.0198
     15  CD1        2.9810   53.2570  152.4850 C.ar   32  TYR32      -0.0009
     16  CD2        5.2190   53.1080  153.3030 C.ar   32  TYR32      -0.0009
     17  CE1        2.5080   53.3630  153.7710 C.ar   32  TYR32       0.0417
     18  CE2        4.7620   53.2030  154.6050 C.ar   32  TYR32       0.0417
     19  CZ         3.4110   53.3330  154.8290 C.ar   32  TYR32       0.1957
     20  OH         2.9570   53.4370  156.1210 O.3    32  TYR32      -0.2866
     21  N          4.2900   51.5160  148.0800 N.am   33  GLU33      -0.1932
     22  CA         4.4320   51.6040  146.6290 C.3    33  GLU33       0.1818
     23  C          4.9500   53.0030  146.3030 C.2    33  GLU33       0.2332
     24  O          4.5130   53.9820  146.8960 O.2    33  GLU33      -0.2860
     25  CB         3.0670   51.4910  145.9600 C.2    33  GLU33       0.0097
     26  CG         2.3310   50.1850  145.9380 C.2    33  GLU33       0.0837
     27  CD         0.8520   50.2280  145.6400 C.2    33  GLU33       0.3877
     28  OE1        0.3450   51.3290  145.3240 O.co2  33  GLU33      -0.2406
     29  OE2        0.1380   49.1820  145.7380 O.co2  33  GLU33      -0.2406
     30  N          6.4760   48.4910  144.1290 N.3    52  HIS52      -0.1241
     31  CA         6.5550   47.9760  145.4880 C.3    52  HIS52       0.1621
     32  C          7.9720   47.5040  145.7800 C.2    52  HIS52       0.2264
     33  O          8.3160   46.3970  145.3550 O.2    52  HIS52      -0.2867
     34  CB         5.6840   46.7360  145.7090 C.3    52  HIS52       0.0745
     35  CG         5.4660   46.5900  147.1830 C.ar   52  HIS52       0.0817
     36  ND1        6.5030   46.3520  148.0810 N.ar   52  HIS52      -0.2268
     37  CD2        4.3270   46.6730  147.9160 C.ar   52  HIS52       0.1154
     38  CE1        6.0070   46.2940  149.2910 C.ar   52  HIS52       0.1986
     39  NE2        4.7050   46.4920  149.2200 N.ar   52  HIS52      -0.2212
     40  N          8.1300   43.6700  147.6520 N.3    55  SER55      -0.1217
     41  CA         8.0000   42.5670  146.7190 C.3    55  SER55       0.1889
     42  C          8.8240   42.7460  145.4600 C.2    55  SER55       0.2288
     43  O          9.1480   41.7590  144.7990 O.2    55  SER55      -0.2866
     44  CB         6.5470   42.5090  146.2090 C.3    55  SER55       0.2089
     45  OG         6.3570   43.7610  145.5620 O.3    55  SER55      -0.2183
     46  N          5.6830   45.5050  140.0040 N.3    58  THR58      -0.1203
     47  CA         5.4810   46.7950  139.3590 C.3    58  THR58       0.1994
     48  C          4.1310   46.7550  138.6860 C.2    58  THR58       0.2617
     49  O          3.6250   45.6690  138.4840 O.2    58  THR58      -0.2717
     50  CB         6.5650   46.9970  138.2820 C.3    58  THR58       0.1784
     51  OG1        6.4490   45.8960  137.3790 O.3    58  THR58      -0.2211
     52  CG2        8.0000   47.1030  138.7610 C.3    58  THR58       0.0376
     53  N          3.4970   47.8460  138.3860 N.am   59  ALA59      -0.1979
     54  CA         2.2640   47.9520  137.6370 C.3    59  ALA59       0.1597
     55  C          2.4640   49.1570  136.6970 C.2    59  ALA59       0.2287
     56  O          3.3030   50.0040  137.0220 O.2    59  ALA59      -0.2864
     57  CB         1.0740   48.1400  138.5330 C.3    59  ALA59       0.0319
     58  N          3.7640   58.9820  146.9260 N.3    98  ARG98      -0.1231
     59  CA         3.4190   57.8300  147.7840 C.3    98  ARG98       0.1694
     60  C          1.9150   57.8160  147.9060 C.2    98  ARG98       0.2592
     61  O          1.2990   56.9230  148.4720 O.2    98  ARG98      -0.2718
     62  CB         4.1190   57.8900  149.1110 C.3    98  ARG98       0.0321
     63  CG         4.4220   56.5580  149.7570 C.3    98  ARG98       0.0489
     64  CD         5.0440   56.7490  151.1470 C.3    98  ARG98       0.2205
     65  NE         4.0430   57.2820  152.0910 N.pl3  98  ARG98      -0.0865
     66  CZ         4.1160   57.1720  153.4220 C.cat  98  ARG98       0.5346
     67  NH1        5.1420   56.5490  153.9950 N.pl3  98  ARG98       0.1354
     68  NH2        3.1690   57.6780  154.1840 N.pl3  98  ARG98       0.1354
     69  N          1.2750   58.7730  147.2520 N.am   99  LYS99      -0.1966
     70  CA        -0.1710   58.9460  147.2020 C.3    99  LYS99       0.1728
     71  C         -0.5220   60.0190  148.2350 C.2    99  LYS99       0.2616
     72  O         -1.3330   60.9210  148.0360 O.2    99  LYS99      -0.2715
     73  CB        -0.9630   57.6640  147.2990 C.3    99  LYS99       0.0311
     74  CG        -0.9130   56.6430  146.1850 C.3    99  LYS99       0.0038
     75  CD        -1.8810   55.4960  146.3780 C.3    99  LYS99       0.0206
     76  CE        -1.1740   54.1580  146.5030 C.3    99  LYS99       0.1093
     77  NZ        -1.4050   53.1890  145.3930 N.3    99  LYS99      -0.1314
     78  N          0.2020   60.0230  149.3410 N.am  100  ASP100     -0.1971
     79  CA         0.0520   61.0340  150.3840 C.3   100  ASP100      0.1709
     80  C          1.1890   62.0210  150.1880 C.2   100  ASP100      0.2293
     81  O          0.8840   63.1690  149.8860 O.2   100  ASP100     -0.2864
     82  CB        -0.0560   60.4250  151.7620 C.3   100  ASP100      0.1436
     83  CG         1.0570   59.4760  152.1470 C.2   100  ASP100      0.3671
     84  OD1        2.0200   59.2730  151.3660 O.co2 100  ASP100     -0.2456
     85  OD2        0.9190   58.9390  153.2750 O.co2 100  ASP100     -0.2456
@<TRIPOS>BOND
     1    55    56    2
     2    55    54    1
     3    51    50    1
     4    54    53    1
     5    54    57    1
     6    50    52    1
     7    50    47    1
     8    53    48   am
     9    49    48    2
    10    48    47    1
    11    47    46    1
    12    30    31    1
    13    43    42    2
    14    28    27   ar
    15    33    32    2
    16    77    76    1
    17    42    41    1
    18    31    34    1
    19    31    32    1
    20    45    44    1
    21    27    29   ar
    22    27    26    1
    23    34    35    1
    24    26    25    2
    25    25    22    1
    26    74    75    1
    27    74    73    1
    28    44    41    1
    29    23    22    1
    30    23    24    2
    31    75    76    1
    32    22    21    1
    33    41    40    1
    34    58    59    1
    35    35    37   ar
    36    35    36   ar
    37    70    69    1
    38    70    73    1
    39    70    71    1
    40    69    60   am
    41    59    60    1
    42    59    62    1
    43    60    61    2
    44    37    39   ar
    45    72    71    2
    46    21    11   am
    47    36    38   ar
    48    71    78   am
    49    12    11    2
    50    11    10    1
    51    62    63    1
    52    39    38   ar
    53    78    79    1
    54    63    64    1
    55    81    80    2
    56    80    79    1
    57    79    82    1
    58    10    13    1
    59    10     9    1
    60    13    14    1
    61    64    65    1
    62     9     3   am
    63    84    83   ar
    64    82    83    1
    65    65    66    2
    66     3     4    2
    67     3     2    1
    68    83    85   ar
    69    14    15   ar
    70    14    16   ar
    71    15    17   ar
    72     1     2    1
    73     2     5    1
    74    16    18   ar
    75    66    67    1
    76    66    68    1
    77    17    19   ar
    78     5     6    1
    79    18    19   ar
    80    19    20    1
    81     7     6   ar
    82     6     8   ar
