@<TRIPOS>MOLECULE
tmp/1cg0A01.pdb
 210 203 0 0 0
SMALL
GASTEIGER

@<TRIPOS>ATOM
      1  N         -5.9080   47.3910   55.0350 N.3    11  TRP11      -0.1227
      2  CA        -6.9030   48.4400   54.7430 C.3    11  TRP11       0.1737
      3  C         -6.8730   48.7670   53.2320 C.2    11  TRP11       0.2596
      4  O         -6.9740   49.9460   52.8450 O.2    11  TRP11      -0.2718
      5  CB        -6.6140   49.7190   55.5350 C.3    11  TRP11       0.0564
      6  CG        -6.8170   49.5730   57.0030 C.ar   11  TRP11       0.0003
      7  CD1       -8.0000   49.6420   57.6790 C.ar   11  TRP11       0.0946
      8  CD2       -5.7970   49.3790   58.0020 C.ar   11  TRP11       0.0152
      9  NE1       -7.7780   49.5040   59.0380 N.ar   11  TRP11      -0.2442
     10  CE2       -6.4340   49.3470   59.2530 C.ar   11  TRP11       0.0810
     11  CE3       -4.4050   49.2360   57.9550 C.ar   11  TRP11       0.0012
     12  CZ2       -5.7300   49.1810   60.4380 C.ar   11  TRP11       0.0191
     13  CZ3       -3.7110   49.0700   59.1340 C.ar   11  TRP11       0.0001
     14  CH2       -4.3770   49.0470   60.3560 C.ar   11  TRP11       0.0015
     15  N         -6.7510   47.7180   52.4050 N.am   12  GLY12      -0.1942
     16  CA        -6.7060   47.8790   50.9730 C.3    12  GLY12       0.2014
     17  C         -5.2980   48.2120   50.5110 C.2    12  GLY12       0.2638
     18  O         -4.3500   48.3010   51.3060 O.2    12  GLY12      -0.2714
     19  N         -5.1500   48.3460   49.1960 N.am   13  ASP13      -0.1971
     20  CA        -3.8760   48.7130   48.5680 C.3    13  ASP13       0.1709
     21  C         -2.6520   47.9340   48.9480 C.2    13  ASP13       0.2293
     22  O         -1.5730   48.4720   48.8930 O.2    13  ASP13      -0.2864
     23  CB        -3.6370   50.1980   48.7930 C.3    13  ASP13       0.1436
     24  CG        -4.8310   51.0200   48.3650 C.2    13  ASP13       0.3671
     25  OD1       -5.5260   50.5650   47.4270 O.co2  13  ASP13      -0.2456
     26  OD2       -5.1360   52.0580   48.9980 O.co2  13  ASP13      -0.2456
     27  N         -3.0440   43.7340   45.5500 N.3    16  LYS16      -0.1245
     28  CA        -3.8770   42.6530   44.9850 C.3    16  LYS16       0.1561
     29  C         -3.9470   42.5880   43.4280 C.2    16  LYS16       0.2260
     30  O         -3.8590   41.4910   42.8440 O.2    16  LYS16      -0.2867
     31  CB        -5.2880   42.6870   45.5830 C.3    16  LYS16       0.0271
     32  CG        -5.3360   42.6680   47.1350 C.3    16  LYS16       0.0035
     33  CD        -6.7650   42.9540   47.6520 C.3    16  LYS16       0.0206
     34  CE        -7.3390   44.3280   47.1600 C.3    16  LYS16       0.1093
     35  NZ        -6.6690   45.5900   47.6850 N.3    16  LYS16      -0.1314
     36  N        -14.3880   51.7530   43.5190 N.3    38  ASN38      -0.1225
     37  CA       -13.6740   52.4360   44.5770 C.3    38  ASN38       0.1785
     38  C        -12.2380   51.8610   44.5690 C.2    38  ASN38       0.2597
     39  O        -11.2500   52.5500   44.8490 O.2    38  ASN38      -0.2718
     40  CB       -14.3910   52.2690   45.9510 C.3    38  ASN38       0.1169
     41  CG       -14.9790   50.8460   46.1990 C.2    38  ASN38       0.2627
     42  OD1      -14.9190   49.9390   45.3630 O.2    38  ASN38      -0.2716
     43  ND2      -15.5590   50.6760   47.3620 N.am   38  ASN38      -0.0877
     44  N        -12.1320   50.5990   44.1730 N.am   39  ALA39      -0.1966
     45  CA       -10.8530   49.9020   44.0580 C.3    39  ALA39       0.1728
     46  C         -9.8830   50.4830   42.9980 C.2    39  ALA39       0.2617
     47  O        -10.2860   51.0010   41.9470 O.2    39  ALA39      -0.2715
     48  CB       -11.1110   48.4500   43.7590 C.3    39  ALA39       0.0334
     49  N         -8.5960   50.4120   43.3040 N.am   40  GLY40      -0.1940
     50  CA        -7.5740   50.8960   42.3830 C.3    40  GLY40       0.2014
     51  C         -6.5220   49.8070   42.3950 C.2    40  GLY40       0.2638
     52  O         -5.8090   49.6210   43.3840 O.2    40  GLY40      -0.2714
     53  N         -6.4870   49.0300   41.3210 N.am   41  HIS41      -0.1973
     54  CA        -5.5620   47.9210   41.1900 C.3    41  HIS41       0.1656
     55  C         -4.5290   48.1480   40.0720 C.2    41  HIS41       0.2291
     56  O         -4.8620   48.1100   38.8700 O.2    41  HIS41      -0.2864
     57  CB        -6.3570   46.6380   40.9630 C.3    41  HIS41       0.0771
     58  CG        -7.3140   46.3310   42.0710 C.ar   41  HIS41       0.0820
     59  ND1       -8.1910   45.2670   42.0340 N.ar   41  HIS41      -0.2267
     60  CD2       -7.5190   46.9400   43.2610 C.ar   41  HIS41       0.1154
     61  CE1       -8.8940   45.2340   43.1530 C.ar   41  HIS41       0.1986
     62  NE2       -8.5060   46.2420   43.9100 N.ar   41  HIS41      -0.2212
     63  N        -23.8370   59.9760   47.9320 N.3   114  ASP114     -0.1239
     64  CA       -22.5710   59.7270   48.6100 C.3   114  ASP114      0.1674
     65  C        -22.0240   61.0830   49.0680 C.2   114  ASP114      0.2266
     66  O        -21.8150   61.3170   50.2830 O.2   114  ASP114     -0.2867
     67  CB       -21.5730   59.0270   47.6850 C.3   114  ASP114      0.1410
     68  CG       -20.4120   58.4070   48.4470 C.2   114  ASP114      0.3668
     69  OD1      -19.6860   57.5910   47.8690 O.co2 114  ASP114     -0.2456
     70  OD2      -20.2270   58.7000   49.6460 O.co2 114  ASP114     -0.2456
     71  N        -16.4030   59.8940   56.5350 N.3   126  ILE126     -0.1231
     72  CA       -15.7750   58.6010   56.3180 C.3   126  ILE126      0.1692
     73  C        -14.5290   58.6750   55.4280 C.2   126  ILE126      0.2593
     74  O        -13.5780   57.9190   55.6190 O.2   126  ILE126     -0.2718
     75  CB       -16.8080   57.6100   55.7410 C.3   126  ILE126      0.0266
     76  CG1      -17.8080   57.2420   56.8370 C.3   126  ILE126      0.0019
     77  CG2      -16.1130   56.3780   55.1630 C.3   126  ILE126      0.0020
     78  CD1      -19.1120   56.6970   56.3480 C.3   126  ILE126      0.0001
     79  N        -14.5080   59.6300   54.5050 N.am  127  GLY127     -0.1942
     80  CA       -13.3950   59.7520   53.5940 C.3   127  GLY127      0.2014
     81  C        -13.6860   58.8040   52.4530 C.2   127  GLY127      0.2640
     82  O        -12.7570   58.2450   51.8860 O.2   127  GLY127     -0.2714
     83  N        -14.9560   58.6230   52.0840 N.am  128  THR128     -0.1936
     84  CA       -15.2870   57.6920   50.9900 C.3   128  THR128      0.2028
     85  C        -14.6740   58.1610   49.6760 C.2   128  THR128      0.2643
     86  O        -14.4690   59.3720   49.4710 O.2   128  THR128     -0.2714
     87  CB       -16.8130   57.5540   50.7460 C.3   128  THR128      0.1808
     88  OG1      -17.2890   58.7220   50.0660 O.3   128  THR128     -0.2208
     89  CG2      -17.5700   57.3520   52.0460 C.3   128  THR128      0.0379
     90  N        -14.4020   57.2100   48.7820 N.am  129  THR129     -0.1936
     91  CA       -13.8290   57.5370   47.4630 C.3   129  THR129      0.2028
     92  C        -14.6940   58.3950   46.5010 C.2   129  THR129      0.2643
     93  O        -14.3500   58.5140   45.3200 O.2   129  THR129     -0.2714
     94  CB       -13.3340   56.2780   46.6820 C.3   129  THR129      0.1808
     95  OG1      -14.4400   55.4160   46.3730 O.3   129  THR129     -0.2208
     96  CG2      -12.2700   55.5050   47.4750 C.3   129  THR129      0.0379
     97  N        -15.8100   58.9600   46.9630 N.am  130  GLY130     -0.1939
     98  CA       -16.6110   59.7880   46.0770 C.3   130  GLY130      0.2014
     99  C        -17.2960   59.1060   44.9000 C.2   130  GLY130      0.2638
    100  O        -17.8720   59.7880   44.0220 O.2   130  GLY130     -0.2714
    101  N        -17.1920   57.7780   44.8330 N.am  131  ARG131     -0.1977
    102  CA       -17.8620   56.9920   43.7860 C.3   131  ARG131      0.1597
    103  C        -19.1630   56.6650   44.5160 C.2   131  ARG131      0.2287
    104  O        -19.1580   56.6590   45.7360 O.2   131  ARG131     -0.2864
    105  CB       -17.0590   55.7250   43.4900 C.3   131  ARG131      0.0334
    106  CG       -15.5560   55.9530   43.2530 C.3   131  ARG131      0.0492
    107  CD       -15.4290   57.0800   42.3190 C.3   131  ARG131      0.2205
    108  NE       -14.1650   57.2030   41.6160 N.pl3 131  ARG131     -0.0865
    109  CZ       -13.2460   58.0730   42.0150 C.cat 131  ARG131      0.5346
    110  NH1      -13.4100   58.8080   43.1030 N.pl3 131  ARG131      0.1354
    111  NH2      -12.2760   58.3820   41.1840 N.pl3 131  ARG131      0.1354
    112  N        -20.6390   54.1210   45.8540 N.3   133  ILE133     -0.1231
    113  CA       -20.6890   52.7920   46.4970 C.3   133  ILE133      0.1692
    114  C        -21.6910   52.5790   47.6250 C.2   133  ILE133      0.2592
    115  O        -22.5470   51.6940   47.5330 O.2   133  ILE133     -0.2718
    116  CB       -19.2830   52.3740   46.9940 C.3   133  ILE133      0.0266
    117  CG1      -18.2020   52.7090   45.9370 C.3   133  ILE133      0.0019
    118  CG2      -19.2760   50.8790   47.3560 C.3   133  ILE133      0.0020
    119  CD1      -18.3270   51.9960   44.5910 C.3   133  ILE133      0.0001
    120  N        -21.6000   53.4050   48.6740 N.am  134  GLY134     -0.1957
    121  CA       -22.5000   53.3050   49.8270 C.3   134  GLY134      0.1869
    122  C        -23.9650   53.2570   49.4350 C.2   134  GLY134      0.2309
    123  O        -24.6890   52.3060   49.7510 O.2   134  GLY134     -0.2863
    124  N        -10.6290   46.2870   48.3040 N.3   224  GLN224     -0.1245
    125  CA       -10.4480   46.7740   49.6720 C.3   224  GLN224      0.1566
    126  C         -9.6730   45.7580   50.5750 C.2   224  GLN224      0.2260
    127  O         -8.9860   44.8780   50.0570 O.2   224  GLN224     -0.2867
    128  CB       -11.7790   47.1900   50.2780 C.3   224  GLN224      0.0367
    129  CG       -12.3400   48.4380   49.6530 C.3   224  GLN224      0.0905
    130  CD       -13.0130   48.1720   48.3220 C.2   224  GLN224      0.2608
    131  OE1      -14.0360   47.4770   48.2650 O.2   224  GLN224     -0.2717
    132  NE2      -12.4610   48.7290   47.2470 N.am  224  GLN224     -0.0878
    133  N        -11.7440   47.0610   56.5120 N.3   228  LEU228     -0.1245
    134  CA       -12.6920   47.9410   55.8700 C.3   228  LEU228      0.1561
    135  C        -14.0180   47.1690   55.6490 C.2   228  LEU228      0.2260
    136  O        -14.9920   47.6830   55.0630 O.2   228  LEU228     -0.2867
    137  CB       -12.0850   48.4150   54.5500 C.3   228  LEU228      0.0270
    138  CG       -10.9120   49.4090   54.5870 C.3   228  LEU228      0.0019
    139  CD1      -10.5090   49.6750   53.1320 C.3   228  LEU228      0.0001
    140  CD2      -11.3140   50.7210   55.2870 C.3   228  LEU228      0.0001
    141  N        -15.9180   53.5530   59.7860 N.3   237  TYR237     -0.1227
    142  CA       -14.8440   53.9170   58.8460 C.3   237  TYR237      0.1736
    143  C        -14.4480   52.6750   58.0680 C.2   237  TYR237      0.2595
    144  O        -13.3450   52.1250   58.2060 O.2   237  TYR237     -0.2718
    145  CB       -13.6710   54.5470   59.6010 C.3   237  TYR237      0.0548
    146  CG       -14.1230   55.7950   60.3030 C.ar  237  TYR237     -0.0200
    147  CD1      -14.5180   56.9250   59.5610 C.ar  237  TYR237     -0.0009
    148  CD2      -14.2870   55.8190   61.6940 C.ar  237  TYR237     -0.0009
    149  CE1      -15.0600   58.0340   60.1850 C.ar  237  TYR237      0.0417
    150  CE2      -14.8370   56.9150   62.3200 C.ar  237  TYR237      0.0417
    151  CZ       -15.2120   58.0220   61.5690 C.ar  237  TYR237      0.1957
    152  OH       -15.6770   59.1470   62.2180 O.3   237  TYR237     -0.2866
    153  N        -15.3840   52.2490   57.2330 N.am  238  VAL238     -0.1966
    154  CA       -15.2440   51.0080   56.4590 C.3   238  VAL238      0.1727
    155  C        -15.8790   51.1850   55.0600 C.2   238  VAL238      0.2617
    156  O        -16.3710   52.2870   54.7090 O.2   238  VAL238     -0.2715
    157  CB       -16.0560   49.8370   57.2020 C.3   238  VAL238      0.0290
    158  CG1      -15.4690   49.5030   58.5840 C.3   238  VAL238      0.0023
    159  CG2      -17.5340   50.2650   57.3900 C.3   238  VAL238      0.0023
    160  N        -15.8780   50.1170   54.2640 N.am  239  THR239     -0.1937
    161  CA       -16.5360   50.1840   52.9660 C.3   239  THR239      0.2028
    162  C        -17.8340   49.4470   53.2680 C.2   239  THR239      0.2642
    163  O        -17.9440   48.8310   54.3210 O.2   239  THR239     -0.2714
    164  CB       -15.7060   49.5500   51.7710 C.3   239  THR239      0.1808
    165  OG1      -16.2940   49.9470   50.5140 O.3   239  THR239     -0.2208
    166  CG2      -15.6770   48.0180   51.8610 C.3   239  THR239      0.0379
    167  N        -18.7970   49.4960   52.3520 N.am  240  SER240     -0.1949
    168  CA       -20.1140   48.8850   52.5410 C.3   240  SER240      0.1924
    169  C        -20.2940   47.4300   52.1270 C.2   240  SER240      0.2314
    170  O        -21.4100   46.9310   52.0860 O.2   240  SER240     -0.2863
    171  CB       -21.1400   49.7260   51.8010 C.3   240  SER240      0.2116
    172  OG       -20.9900   51.0790   52.1800 O.3   240  SER240     -0.2180
    173  N         -3.3890   53.2980   54.9930 N.3   272  ARG272     -0.1231
    174  CA        -4.8210   53.5530   55.0660 C.3   272  ARG272      0.1694
    175  C         -5.0410   54.8270   54.2460 C.2   272  ARG272      0.2592
    176  O         -4.1640   55.6700   54.2000 O.2   272  ARG272     -0.2718
    177  CB        -5.2260   53.8940   56.5000 C.3   272  ARG272      0.0321
    178  CG        -6.0330   52.8790   57.2340 C.3   272  ARG272      0.0489
    179  CD        -6.8610   53.4860   58.3560 C.3   272  ARG272      0.2205
    180  NE        -8.2580   53.4940   57.9640 N.pl3 272  ARG272     -0.0865
    181  CZ        -9.2140   52.9980   58.7520 C.cat 272  ARG272      0.5346
    182  NH1       -8.9280   52.5150   59.9630 N.pl3 272  ARG272      0.1354
    183  NH2      -10.4470   52.8360   58.2510 N.pl3 272  ARG272      0.1354
    184  N         -6.1800   54.9500   53.5730 N.am  273  VAL273     -0.1966
    185  CA        -6.5770   56.1700   52.8600 C.3   273  VAL273      0.1727
    186  C         -8.0270   56.1910   53.3360 C.2   273  VAL273      0.2617
    187  O         -8.7640   55.2010   53.1440 O.2   273  VAL273     -0.2715
    188  CB        -6.6760   56.0760   51.3150 C.3   273  VAL273      0.0290
    189  CG1       -6.0720   57.3160   50.6780 C.3   273  VAL273      0.0023
    190  CG2       -6.0810   54.8110   50.7850 C.3   273  VAL273      0.0023
    191  N         -8.4320   57.3090   53.9250 N.am  274  GLY274     -0.1940
    192  CA        -9.7680   57.4580   54.4690 C.3   274  GLY274      0.2014
    193  C         -9.5260   57.6110   55.9650 C.2   274  GLY274      0.2638
    194  O         -8.4200   57.3450   56.4600 O.2   274  GLY274     -0.2714
    195  N        -10.5250   58.0880   56.6930 N.am  275  ALA275     -0.1977
    196  CA       -10.3720   58.2450   58.1410 C.3   275  ALA275      0.1597
    197  C        -10.5070   56.8880   58.8090 C.2   275  ALA275      0.2287
    198  O        -10.9060   55.9140   58.1720 O.2   275  ALA275     -0.2864
    199  CB       -11.4380   59.1990   58.6870 C.3   275  ALA275      0.0319
    200  N         -5.3830   60.5230   46.5240 N.3   303  ARG303     -0.1245
    201  CA        -5.0960   60.9150   47.9040 C.3   303  ARG303      0.1563
    202  C         -3.8400   60.2540   48.4560 C.2   303  ARG303      0.2260
    203  O         -3.5550   59.1020   48.1240 O.2   303  ARG303     -0.2867
    204  CB        -6.2660   60.5540   48.8110 C.3   303  ARG303      0.0307
    205  CG        -7.4970   61.4160   48.6070 C.3   303  ARG303      0.0489
    206  CD        -8.6170   60.9610   49.4830 C.3   303  ARG303      0.2205
    207  NE        -8.9430   59.5520   49.2490 N.pl3 303  ARG303     -0.0865
    208  CZ        -9.8520   58.9360   49.9990 C.cat 303  ARG303      0.5346
    209  NH1      -10.4890   59.5860   50.9620 N.pl3 303  ARG303      0.1354
    210  NH2      -10.0760   57.6430   49.8270 N.pl3 303  ARG303      0.1354
@<TRIPOS>BOND
     1    56    55    2
     2    55    54    1
     3    57    54    1
     4    57    58    1
     5   111   109    1
     6    54    53    1
     7    53    51   am
     8   108   109    2
     9   108   107    1
    10    47    46    2
    11   109   110    1
    12    59    58   ar
    13    59    61   ar
    14    58    60   ar
    15   107   106    1
    16    50    51    1
    17    50    49    1
    18    51    52    2
    19    30    29    2
    20    46    49   am
    21    46    45    1
    22    61    62   ar
    23   106   105    1
    24    60    62   ar
    25    29    28    1
    26   105   102    1
    27    36    37    1
    28    48    45    1
    29   102   103    1
    30   102   101    1
    31   100    99    2
    32    45    44    1
    33    44    38   am
    34   103   104    2
    35    38    37    1
    36    38    39    2
    37    37    40    1
    38   119   117    1
    39   101    99   am
    40    99    98    1
    41    28    27    1
    42    28    31    1
    43    93    92    2
    44    42    41    2
    45    31    32    1
    46   112   113    1
    47   117   116    1
    48    40    41    1
    49    98    97    1
    50    41    43   am
    51    95    94    1
    52   113   116    1
    53   113   114    1
    54    92    97   am
    55    92    91    1
    56   200   201    1
    57    94    91    1
    58    94    96    1
    59   116   118    1
    60    32    33    1
    61    34    33    1
    62    34    35    1
    63   132   130   am
    64    25    24   ar
    65    91    90    1
    66   115   114    2
    67   114   120   am
    68    67    68    1
    69    67    64    1
    70    69    68   ar
    71   201   202    1
    72   201   204    1
    73    63    64    1
    74   203   202    2
    75   131   130    2
    76   124   125    1
    77   130   129    1
    78    24    23    1
    79    24    26   ar
    80    68    70   ar
    81    20    23    1
    82    20    21    1
    83    20    19    1
    84   205   204    1
    85   205   206    1
    86    64    65    1
    87   120   121    1
    88    90    85   am
    89    22    21    2
    90    65    66    2
    91    19    17   am
    92   207   206    1
    93   207   208    2
    94   122   123    2
    95   122   121    1
    96    86    85    2
    97   129   128    1
    98   125   128    1
    99   125   126    1
   100    85    84    1
   101   210   208    1
   102   208   209    1
   103   127   126    2
   104    88    87    1
   105    17    16    1
   106    17    18    2
   107   165   164    1
   108   189   188    1
   109    87    84    1
   110    87    89    1
   111   190   188    1
   112    16    15    1
   113    84    83    1
   114   188   185    1
   115   164   166    1
   116   164   161    1
   117   171   172    1
   118   171   168    1
   119    82    81    2
   120    83    81   am
   121   170   169    2
   122   169   168    1
   123   167   168    1
   124   167   162   am
   125    15     3   am
   126    81    80    1
   127     4     3    2
   128   185   186    1
   129   185   184    1
   130   161   162    1
   131   161   160    1
   132   139   138    1
   133   187   186    2
   134     3     2    1
   135   162   163    2
   136   186   191   am
   137   184   175   am
   138    80    79    1
   139   191   192    1
   140   176   175    2
   141   175   174    1
   142   160   155   am
   143   192   193    1
   144    79    73   am
   145   137   138    1
   146   137   134    1
   147   138   140    1
   148   156   155    2
   149     2     1    1
   150     2     5    1
   151   173   174    1
   152   155   154    1
   153   136   135    2
   154   174   177    1
   155    77    75    1
   156    73    74    2
   157    73    72    1
   158     5     6    1
   159   135   134    1
   160    75    72    1
   161    75    76    1
   162   134   133    1
   163   193   194    2
   164   193   195   am
   165    72    71    1
   166    78    76    1
   167   154   157    1
   168   154   153    1
   169   177   178    1
   170   195   196    1
   171     6     7   ar
   172     6     8   ar
   173   157   159    1
   174   157   158    1
   175   153   143   am
   176   178   179    1
   177     7     9   ar
   178    11     8   ar
   179    11    13   ar
   180   180   179    1
   181   180   181    2
   182     8    10   ar
   183   143   144    2
   184   143   142    1
   185   196   199    1
   186   196   197    1
   187   198   197    2
   188   183   181    1
   189   181   182    1
   190   142   145    1
   191   142   141    1
   192     9    10   ar
   193    13    14   ar
   194    10    12   ar
   195   147   149   ar
   196   147   146   ar
   197   145   146    1
   198   149   151   ar
   199   146   148   ar
   200    14    12   ar
   201   151   152    1
   202   151   150   ar
   203   148   150   ar
