@<TRIPOS>MOLECULE
tmp/1cg5B00.pdb
 211 200 0 0 0
SMALL
GASTEIGER

@<TRIPOS>ATOM
      1  N         17.7800   19.6500   28.9110 N.3    28  LEU28      -0.1245
      2  CA        16.8910   20.1660   29.9460 C.3    28  LEU28       0.1561
      3  C         17.0960   21.6690   30.1480 C.2    28  LEU28       0.2260
      4  O         16.1280   22.4250   30.1960 O.2    28  LEU28      -0.2867
      5  CB        17.0980   19.4090   31.2580 C.3    28  LEU28       0.0270
      6  CG        16.4700   18.0150   31.3040 C.3    28  LEU28       0.0019
      7  CD1       16.8620   17.3300   32.6110 C.3    28  LEU28       0.0001
      8  CD2       14.9350   18.1140   31.1750 C.3    28  LEU28       0.0001
      9  N         15.4690   23.4740   27.3230 N.3    31  VAL31      -0.1231
     10  CA        14.0020   23.5100   27.3470 C.3    31  VAL31       0.1692
     11  C         13.4780   24.5170   28.3850 C.2    31  VAL31       0.2592
     12  O         12.5170   25.2440   28.1260 O.2    31  VAL31      -0.2718
     13  CB        13.3700   22.0900   27.5430 C.3    31  VAL31       0.0266
     14  CG1       13.3570   21.6790   29.0040 C.3    31  VAL31       0.0020
     15  CG2       11.9600   22.0500   26.9470 C.3    31  VAL31       0.0020
     16  N         14.1710   24.6100   29.5200 N.am   32  PHE32      -0.1976
     17  CA        13.7950   25.5320   30.5940 C.3    32  PHE32       0.1639
     18  C         13.9660   26.9970   30.1930 C.2    32  PHE32       0.2290
     19  O         13.2140   27.8580   30.6510 O.2    32  PHE32      -0.2864
     20  CB        14.6290   25.2550   31.8530 C.3    32  PHE32       0.0560
     21  CG        14.3270   23.9360   32.5180 C.ar   32  PHE32      -0.0200
     22  CD1       13.0490   23.3760   32.4560 C.ar   32  PHE32      -0.0042
     23  CD2       15.3220   23.2610   33.2320 C.ar   32  PHE32      -0.0042
     24  CE1       12.7630   22.1660   33.0970 C.ar   32  PHE32      -0.0003
     25  CE2       15.0460   22.0480   33.8770 C.ar   32  PHE32      -0.0003
     26  CZ        13.7660   21.5010   33.8090 C.ar   32  PHE32      -0.0000
     27  N          7.8570   25.3760   30.9710 N.3    38  THR38      -0.1218
     28  CA         8.1690   23.9890   31.3140 C.3    38  THR38       0.1862
     29  C          8.7600   23.8770   32.7280 C.2    38  THR38       0.2287
     30  O          8.9170   22.7740   33.2430 O.2    38  THR38      -0.2866
     31  CB         9.1510   23.3250   30.2930 C.3    38  THR38       0.1770
     32  OG1       10.3870   24.0460   30.2590 O.3    38  THR38      -0.2211
     33  CG2        8.5410   23.2720   28.8830 C.3    38  THR38       0.0375
     34  N          6.5330   22.8170   37.2740 N.3    41  LEU41      -0.1231
     35  CA         6.6330   21.8360   38.3560 C.3    41  LEU41       0.1693
     36  C          8.0470   21.6720   38.9330 C.2    41  LEU41       0.2592
     37  O          8.3060   20.7360   39.7010 O.2    41  LEU41      -0.2718
     38  CB         6.0980   20.4780   37.8770 C.3    41  LEU41       0.0284
     39  CG         4.6410   20.4610   37.3890 C.3    41  LEU41       0.0019
     40  CD1        4.3020   19.1090   36.8050 C.3    41  LEU41       0.0001
     41  CD2        3.6970   20.8080   38.5240 C.3    41  LEU41       0.0001
     42  N          8.9390   22.6040   38.5970 N.am   42  PHE42      -0.1976
     43  CA        10.3260   22.5570   39.0510 C.3    42  PHE42       0.1639
     44  C         10.7490   23.7090   39.9720 C.2    42  PHE42       0.2290
     45  O         11.8940   24.1650   39.9010 O.2    42  PHE42      -0.2864
     46  CB        11.2650   22.5080   37.8380 C.3    42  PHE42       0.0560
     47  CG        11.2680   21.1880   37.1280 C.ar   42  PHE42      -0.0200
     48  CD1       11.9850   20.1120   37.6390 C.ar   42  PHE42      -0.0042
     49  CD2       10.5460   21.0150   35.9500 C.ar   42  PHE42      -0.0042
     50  CE1       11.9810   18.8780   36.9880 C.ar   42  PHE42      -0.0003
     51  CE2       10.5380   19.7910   35.2940 C.ar   42  PHE42      -0.0003
     52  CZ        11.2560   18.7200   35.8130 C.ar   42  PHE42      -0.0000
     53  N         11.5070   23.5870   42.9180 N.3    44  LYS44      -0.1245
     54  CA        12.5660   23.0690   43.7760 C.3    44  LYS44       0.1561
     55  C         13.9630   23.3720   43.2250 C.2    44  LYS44       0.2260
     56  O         14.9550   23.2440   43.9420 O.2    44  LYS44      -0.2867
     57  CB        12.4030   21.5600   43.9610 C.3    44  LYS44       0.0271
     58  CG        12.6250   20.7440   42.6950 C.3    44  LYS44       0.0035
     59  CD        12.4950   19.2560   42.9730 C.3    44  LYS44       0.0206
     60  CE        12.8440   18.4390   41.7470 C.3    44  LYS44       0.1093
     61  NZ        14.2440   18.6880   41.3050 N.3    44  LYS44      -0.1314
     62  N         17.7580   15.3660   37.7540 N.3    59  HIS59      -0.1241
     63  CA        16.6180   15.0270   36.9060 C.3    59  HIS59       0.1621
     64  C         17.0850   14.3730   35.6000 C.2    59  HIS59       0.2264
     65  O         16.4260   13.4690   35.0800 O.2    59  HIS59      -0.2867
     66  CB        15.7460   16.2510   36.5990 C.3    59  HIS59       0.0745
     67  CG        14.4020   15.8960   36.0400 C.ar   59  HIS59       0.0817
     68  ND1       13.5010   15.1060   36.7240 N.ar   59  HIS59      -0.2268
     69  CD2       13.8280   16.1690   34.8440 C.ar   59  HIS59       0.1154
     70  CE1       12.4350   14.9040   35.9700 C.ar   59  HIS59       0.1986
     71  NE2       12.6070   15.5370   34.8240 N.ar   59  HIS59      -0.2212
     72  N         17.4700   10.6960   35.8800 N.3    62  LYS62      -0.1231
     73  CA        16.1890    9.9860   35.8430 C.3    62  LYS62       0.1693
     74  C         15.6910    9.8130   34.4070 C.2    62  LYS62       0.2591
     75  O         15.2510    8.7290   34.0120 O.2    62  LYS62      -0.2718
     76  CB        15.1190   10.7560   36.6300 C.3    62  LYS62       0.0285
     77  CG        15.3940   10.9220   38.1160 C.3    62  LYS62       0.0035
     78  CD        14.2360   11.6550   38.7880 C.3    62  LYS62       0.0206
     79  CE        14.4680   11.8350   40.2770 C.3    62  LYS62       0.1093
     80  NZ        13.2950   12.4790   40.9360 N.3    62  LYS62      -0.1314
     81  N         15.7420   10.8990   33.6400 N.am   63  VAL63      -0.1980
     82  CA        15.2800   10.8900   32.2560 C.3    63  VAL63       0.1595
     83  C         16.1120    9.9960   31.3400 C.2    63  VAL63       0.2287
     84  O         15.5510    9.2210   30.5670 O.2    63  VAL63      -0.2864
     85  CB        15.2010   12.3310   31.6800 C.3    63  VAL63       0.0276
     86  CG1       14.7890   12.3050   30.2090 C.3    63  VAL63       0.0022
     87  CG2       14.2040   13.1570   32.4910 C.3    63  VAL63       0.0022
     88  N         15.3330    6.2060   31.6780 N.3    66  ALA66      -0.1231
     89  CA        14.0810    5.8660   31.0220 C.3    66  ALA66       0.1694
     90  C         14.2790    5.8080   29.5050 C.2    66  ALA66       0.2591
     91  O         13.7180    4.9390   28.8330 O.2    66  ALA66      -0.2718
     92  CB        13.0170    6.8830   31.3830 C.3    66  ALA66       0.0304
     93  N         15.0760    6.7350   28.9700 N.am   67  LEU67      -0.1980
     94  CA        15.3570    6.7630   27.5360 C.3    67  LEU67       0.1596
     95  C         16.0890    5.4850   27.1370 C.2    67  LEU67       0.2287
     96  O         15.8430    4.9280   26.0650 O.2    67  LEU67      -0.2864
     97  CB        16.1990    7.9850   27.1570 C.3    67  LEU67       0.0297
     98  CG        15.4950    9.3430   27.0910 C.3    67  LEU67       0.0022
     99  CD1       16.4940   10.4190   26.6980 C.3    67  LEU67       0.0001
    100  CD2       14.3510    9.2890   26.0880 C.3    67  LEU67       0.0001
    101  N          6.1740    1.7580   29.0050 N.3    81  PHE81      -0.1241
    102  CA         6.0070    3.0750   29.6230 C.3    81  PHE81       0.1605
    103  C          4.6280    3.3660   30.2240 C.2    81  PHE81       0.2264
    104  O          4.3890    4.4820   30.6920 O.2    81  PHE81      -0.2867
    105  CB         6.3330    4.1780   28.6060 C.3    81  PHE81       0.0534
    106  CG         7.7990    4.5060   28.4880 C.ar   81  PHE81      -0.0203
    107  CD1        8.7790    3.5930   28.8640 C.ar   81  PHE81      -0.0042
    108  CD2        8.1970    5.7420   27.9930 C.ar   81  PHE81      -0.0042
    109  CE1       10.1400    3.9080   28.7480 C.ar   81  PHE81      -0.0003
    110  CE2        9.5570    6.0670   27.8730 C.ar   81  PHE81      -0.0003
    111  CZ        10.5250    5.1450   28.2530 C.ar   81  PHE81      -0.0000
    112  N          4.9270    4.6140   33.7940 N.3    84  LEU84      -0.1245
    113  CA         5.6370    5.8940   33.8110 C.3    84  LEU84       0.1561
    114  C          4.7300    7.0080   33.2830 C.2    84  LEU84       0.2260
    115  O          4.8160    8.1490   33.7330 O.2    84  LEU84      -0.2867
    116  CB         6.9110    5.8110   32.9660 C.3    84  LEU84       0.0270
    117  CG         7.7870    7.0650   32.9030 C.3    84  LEU84       0.0019
    118  CD1        8.2430    7.4710   34.2960 C.3    84  LEU84       0.0001
    119  CD2        8.9790    6.8080   32.0120 C.3    84  LEU84       0.0001
    120  N          2.1970    7.8610   35.9600 N.3    87  LYS87      -0.1231
    121  CA         2.9310    8.5900   36.9880 C.3    87  LYS87       0.1693
    122  C          3.0620   10.0770   36.6200 C.2    87  LYS87       0.2592
    123  O          2.9170   10.9400   37.4860 O.2    87  LYS87      -0.2718
    124  CB         4.3140    7.9610   37.1740 C.3    87  LYS87       0.0285
    125  CG         5.1720    8.6100   38.2330 C.3    87  LYS87       0.0035
    126  CD         4.6040    8.3740   39.6190 C.3    87  LYS87       0.0206
    127  CE         5.4630    9.0470   40.6750 C.3    87  LYS87       0.1093
    128  NZ         4.9290    8.8220   42.0460 N.3    87  LYS87      -0.1314
    129  N          3.3340   10.3710   35.3440 N.am   88  HIS88      -0.1976
    130  CA         3.4540   11.7610   34.8840 C.3    88  HIS88       0.1656
    131  C          2.1370   12.5190   35.0310 C.2    88  HIS88       0.2291
    132  O          2.1440   13.7090   35.3560 O.2    88  HIS88      -0.2864
    133  CB         3.9610   11.8470   33.4360 C.3    88  HIS88       0.0771
    134  CG         5.4820   11.8030   33.3920 C.ar   88  HIS88       0.0820
    135  ND1        6.2050   10.6320   33.4830 N.ar   88  HIS88      -0.2267
    136  CD2        6.3360   12.9160   33.3320 C.ar   88  HIS88       0.1154
    137  CE1        7.4910   11.0390   33.4770 C.ar   88  HIS88       0.1986
    138  NE2        7.6120   12.3330   33.3770 N.ar   88  HIS88      -0.2212
    139  N          1.8680   13.3910   38.6850 N.3    91  ILE91      -0.1245
    140  CA         2.7970   14.4780   38.9880 C.3    91  ILE91       0.1561
    141  C          2.1910   15.8000   38.5020 C.2    91  ILE91       0.2260
    142  O          2.3240   16.8360   39.1630 O.2    91  ILE91      -0.2867
    143  CB         4.1740   14.2180   38.3240 C.3    91  ILE91       0.0252
    144  CG1        4.8080   12.9610   38.9280 C.3    91  ILE91       0.0019
    145  CG2        5.1050   15.4130   38.5020 C.3    91  ILE91       0.0019
    146  CD1        6.0660   12.4940   38.2220 C.3    91  ILE91       0.0001
    147  N          2.2790   16.6910   34.8760 N.3    93  VAL93      -0.1245
    148  CA         2.9830   17.1540   33.6810 C.3    93  VAL93       0.1561
    149  C          2.0890   17.2960   32.4360 C.2    93  VAL93       0.2260
    150  O          1.2510   16.4370   32.1570 O.2    93  VAL93      -0.2867
    151  CB         4.1800   16.2130   33.3480 C.3    93  VAL93       0.0252
    152  CG1        4.9260   16.7090   32.1090 C.3    93  VAL93       0.0019
    153  CG2        5.1340   16.1080   34.5460 C.3    93  VAL93       0.0019
    154  N          4.7460   19.3730   26.8360 N.3    97  ASN97      -0.1225
    155  CA         6.1280   19.5780   27.2600 C.3    97  ASN97       0.1785
    156  C          7.0600   18.4870   26.7080 C.2    97  ASN97       0.2597
    157  O          8.2380   18.7510   26.4600 O.2    97  ASN97      -0.2718
    158  CB         6.2340   19.6140   28.7920 C.3    97  ASN97       0.1169
    159  CG         5.5970   20.8620   29.4190 C.2    97  ASN97       0.2627
    160  OD1        4.8920   21.6320   28.7670 O.2    97  ASN97      -0.2716
    161  ND2        5.8510   21.0530   30.7020 N.am   97  ASN97      -0.0877
    162  N          6.5380   17.2680   26.5200 N.am   98  PHE98      -0.1976
    163  CA         7.3410   16.1550   25.9880 C.3    98  PHE98       0.1639
    164  C          7.8500   16.4580   24.5730 C.2    98  PHE98       0.2290
    165  O          8.9840   16.1160   24.2280 O.2    98  PHE98      -0.2864
    166  CB         6.5440   14.8390   25.9680 C.3    98  PHE98       0.0560
    167  CG         6.0870   14.3690   27.3290 C.ar   98  PHE98      -0.0200
    168  CD1        6.9240   14.4680   28.4450 C.ar   98  PHE98      -0.0042
    169  CD2        4.8150   13.8370   27.4950 C.ar   98  PHE98      -0.0042
    170  CE1        6.4930   14.0440   29.7070 C.ar   98  PHE98      -0.0003
    171  CE2        4.3760   13.4120   28.7540 C.ar   98  PHE98      -0.0003
    172  CZ         5.2200   13.5180   29.8600 C.ar   98  PHE98      -0.0000
    173  N         10.7640   19.0770   24.6680 N.3   101  LEU101     -0.1245
    174  CA        12.0500   18.4850   25.0550 C.3   101  LEU101      0.1561
    175  C         12.6590   17.7510   23.8490 C.2   101  LEU101      0.2260
    176  O         13.8770   17.7450   23.6620 O.2   101  LEU101     -0.2867
    177  CB        11.8880   17.5200   26.2400 C.3   101  LEU101      0.0270
    178  CG        13.1790   16.8320   26.7130 C.3   101  LEU101      0.0019
    179  CD1       14.2190   17.8670   27.1200 C.3   101  LEU101      0.0001
    180  CD2       12.8840   15.9020   27.8610 C.3   101  LEU101      0.0001
    181  N         11.8350   10.6770   19.1880 N.3   129  PHE129     -0.1241
    182  CA        11.2580   11.5070   20.2350 C.3   129  PHE129      0.1605
    183  C          9.7380   11.6500   20.1280 C.2   129  PHE129      0.2264
    184  O          9.0830   11.9500   21.1230 O.2   129  PHE129     -0.2867
    185  CB        11.9690   12.8570   20.3260 C.3   129  PHE129      0.0534
    186  CG        13.3050   12.7770   21.0080 C.ar  129  PHE129     -0.0203
    187  CD1       13.3820   12.5760   22.3850 C.ar  129  PHE129     -0.0042
    188  CD2       14.4870   12.8510   20.2730 C.ar  129  PHE129     -0.0042
    189  CE1       14.6100   12.4450   23.0180 C.ar  129  PHE129     -0.0003
    190  CE2       15.7240   12.7190   20.8990 C.ar  129  PHE129     -0.0003
    191  CZ        15.7850   12.5140   22.2750 C.ar  129  PHE129     -0.0000
    192  N          8.4740    8.4810   21.8060 N.3   132  VAL132     -0.1231
    193  CA         8.6230    8.6400   23.2500 C.3   132  VAL132      0.1692
    194  C          7.5100    9.5240   23.8390 C.2   132  VAL132      0.2591
    195  O          6.8880    9.1640   24.8470 O.2   132  VAL132     -0.2718
    196  CB        10.0360    9.2110   23.5950 C.3   132  VAL132      0.0266
    197  CG1       10.1290    9.5970   25.0670 C.3   132  VAL132      0.0020
    198  CG2       11.1020    8.1840   23.2520 C.3   132  VAL132      0.0020
    199  N          7.2400   10.6510   23.1800 N.am  133  ALA133     -0.1980
    200  CA         6.1960   11.5840   23.6120 C.3   133  ALA133      0.1597
    201  C          4.8380   10.8900   23.5840 C.2   133  ALA133      0.2287
    202  O          4.0440   11.0240   24.5100 O.2   133  ALA133     -0.2864
    203  CB         6.1790   12.8170   22.7120 C.3   133  ALA133      0.0319
    204  N          4.6090    8.2900   26.4300 N.3   136  LEU136     -0.1245
    205  CA         4.4400    8.9820   27.7110 C.3   136  LEU136      0.1561
    206  C          3.0550    9.6000   27.8890 C.2   136  LEU136      0.2260
    207  O          2.6250    9.8460   29.0170 O.2   136  LEU136     -0.2867
    208  CB         5.5060   10.0730   27.8890 C.3   136  LEU136      0.0270
    209  CG         6.9180    9.6200   28.2640 C.3   136  LEU136      0.0019
    210  CD1        7.8650   10.8070   28.2370 C.3   136  LEU136      0.0001
    211  CD2        6.9050    8.9600   29.6410 C.3   136  LEU136      0.0001
@<TRIPOS>BOND
     1   181   182    1
     2   183   182    1
     3   183   184    2
     4   182   185    1
     5   188   190   ar
     6   188   186   ar
     7   185   186    1
     8   190   191   ar
     9   186   187   ar
    10   192   193    1
    11   191   189   ar
    12   187   189   ar
    13   203   200    1
    14   199   200    1
    15   199   194   am
    16   193   196    1
    17   193   194    1
    18   198   196    1
    19   201   200    1
    20   201   202    2
    21   196   197    1
    22   176   175    2
    23   194   195    2
    24   175   174    1
    25   165   164    2
    26   164   163    1
    27   173   174    1
    28   174   177    1
    29   166   163    1
    30   166   167    1
    31   163   162    1
    32    96    95    2
    33   100    98    1
    34   177   178    1
    35   204   205    1
    36   157   156    2
    37   162   156   am
    38    99    98    1
    39   156   155    1
    40   178   179    1
    41   178   180    1
    42   154   155    1
    43    15    13    1
    44    98    97    1
    45    95    94    1
    46    97    94    1
    47   155   158    1
    48     9    10    1
    49   167   169   ar
    50   167   168   ar
    51    10    13    1
    52    10    11    1
    53   169   171   ar
    54    94    93    1
    55    13    14    1
    56   205   206    1
    57   205   208    1
    58   110   108   ar
    59   110   111   ar
    60   206   207    2
    61   208   209    1
    62   108   106   ar
    63    12    11    2
    64   210   209    1
    65   111   109   ar
    66   209   211    1
    67    11    16   am
    68   168   170   ar
    69   106   105    1
    70   106   107   ar
    71   105   102    1
    72   109   107   ar
    73   171   172   ar
    74   160   159    2
    75   158   159    1
    76    91    90    2
    77    33    31    1
    78     1     2    1
    79    93    90   am
    80   101   102    1
    81   159   161   am
    82    90    89    1
    83    16    17    1
    84   102   103    1
    85   170   172   ar
    86     2     3    1
    87     2     5    1
    88     3     4    2
    89    18    17    1
    90    18    19    2
    91    86    85    1
    92   103   104    2
    93    32    31    1
    94    31    28    1
    95    84    83    2
    96    17    20    1
    97    27    28    1
    98    89    92    1
    99    89    88    1
   100     8     6    1
   101     5     6    1
   102     6     7    1
   103    28    29    1
   104    83    82    1
   105    85    82    1
   106    85    87    1
   107    20    21    1
   108   119   117    1
   109   152   151    1
   110   150   149    2
   111    82    81    1
   112   149   148    1
   113    22    21   ar
   114    22    24   ar
   115    21    23   ar
   116    29    30    2
   117   117   116    1
   118   117   118    1
   119   116   113    1
   120    24    26   ar
   121    23    25   ar
   122   114   115    2
   123   114   113    1
   124   136   138   ar
   125   136   134   ar
   126   151   148    1
   127   151   153    1
   128   138   137   ar
   129   134   133    1
   130   134   135   ar
   131   133   130    1
   132   137   135   ar
   133    81    74   am
   134   148   147    1
   135   112   113    1
   136    26    25   ar
   137    75    74    2
   138    74    73    1
   139    71    69   ar
   140    71    70   ar
   141    69    67   ar
   142   130   131    1
   143   130   129    1
   144   131   132    2
   145    65    64    2
   146    51    52   ar
   147    51    49   ar
   148   129   122   am
   149    64    63    1
   150    52    50   ar
   151    73    72    1
   152    73    76    1
   153    49    47   ar
   154   120   121    1
   155    70    68   ar
   156    67    66    1
   157    67    68   ar
   158    66    63    1
   159   122   121    1
   160   122   123    2
   161    76    77    1
   162    40    39    1
   163    63    62    1
   164    50    48   ar
   165   121   124    1
   166    47    48   ar
   167    47    46    1
   168   124   125    1
   169    34    35    1
   170    39    38    1
   171    39    41    1
   172    46    43    1
   173    38    35    1
   174    77    78    1
   175   146   144    1
   176   125   126    1
   177   143   145    1
   178   143   144    1
   179   143   140    1
   180    35    36    1
   181   141   140    1
   182   141   142    2
   183    42    36   am
   184    42    43    1
   185   139   140    1
   186    78    79    1
   187    36    37    2
   188    43    44    1
   189   126   127    1
   190    45    44    2
   191    79    80    1
   192   127   128    1
   193    61    60    1
   194    60    59    1
   195    58    59    1
   196    58    57    1
   197    53    54    1
   198    55    54    1
   199    55    56    2
   200    54    57    1
