@<TRIPOS>MOLECULE
tmp/1cg8A00.pdb
 228 216 0 0 0
SMALL
GASTEIGER

@<TRIPOS>ATOM
      1  N        -15.7260   37.2760   13.4410 N.3    29  LEU29      -0.1245
      2  CA       -16.4740   36.7040   14.5600 C.3    29  LEU29       0.1561
      3  C        -16.7000   35.2000   14.4070 C.2    29  LEU29       0.2260
      4  O        -16.5380   34.4460   15.3660 O.2    29  LEU29      -0.2867
      5  CB       -17.8170   37.4130   14.7260 C.3    29  LEU29       0.0270
      6  CG       -17.7730   38.8060   15.3520 C.3    29  LEU29       0.0019
      7  CD1      -19.1730   39.3850   15.3440 C.3    29  LEU29       0.0001
      8  CD2      -17.2340   38.7430   16.7840 C.3    29  LEU29       0.0001
      9  N        -13.6810   33.3400   15.4070 N.3    32  LEU32      -0.1245
     10  CA       -13.5250   33.3890   16.8700 C.3    32  LEU32       0.1561
     11  C        -14.3970   32.3300   17.5450 C.2    32  LEU32       0.2260
     12  O        -13.9140   31.5440   18.3620 O.2    32  LEU32      -0.2867
     13  CB       -13.8850   34.7730   17.4160 C.3    32  LEU32       0.0270
     14  CG       -13.8220   34.9050   18.9440 C.3    32  LEU32       0.0019
     15  CD1      -12.3660   34.8510   19.3980 C.3    32  LEU32       0.0001
     16  CD2      -14.4830   36.2050   19.3960 C.3    32  LEU32       0.0001
     17  N        -16.0450   31.3920   23.8430 N.3    39  THR39      -0.1218
     18  CA       -16.3080   32.8160   23.6840 C.3    39  THR39       0.1862
     19  C        -17.7820   33.1100   23.3860 C.2    39  THR39       0.2287
     20  O        -18.2310   34.2590   23.4890 O.2    39  THR39      -0.2866
     21  CB       -15.4150   33.4130   22.5740 C.3    39  THR39       0.1770
     22  OG1      -15.6540   32.7260   21.3390 O.3    39  THR39      -0.2211
     23  CG2      -13.9350   33.2620   22.9470 C.3    39  THR39       0.0375
     24  N        -20.3260   34.8710   25.9090 N.3    42  TYR42      -0.1227
     25  CA       -20.4760   36.3200   26.0530 C.3    42  TYR42       0.1736
     26  C        -21.6820   36.8150   25.2730 C.2    42  TYR42       0.2595
     27  O        -22.2520   37.8560   25.5850 O.2    42  TYR42      -0.2718
     28  CB       -19.2380   37.0640   25.5310 C.3    42  TYR42       0.0548
     29  CG       -18.0070   36.9380   26.3950 C.ar   42  TYR42      -0.0200
     30  CD1      -17.7630   37.8400   27.4310 C.ar   42  TYR42      -0.0009
     31  CD2      -17.0730   35.9290   26.1680 C.ar   42  TYR42      -0.0009
     32  CE1      -16.6150   37.7370   28.2150 C.ar   42  TYR42       0.0417
     33  CE2      -15.9230   35.8190   26.9500 C.ar   42  TYR42       0.0417
     34  CZ       -15.7020   36.7220   27.9660 C.ar   42  TYR42       0.1957
     35  OH       -14.5810   36.6000   28.7510 O.3    42  TYR42      -0.2866
     36  N        -22.0540   36.0650   24.2450 N.am   43  PHE43      -0.1976
     37  CA       -23.1630   36.4450   23.3810 C.3    43  PHE43       0.1639
     38  C        -24.4110   35.6070   23.6490 C.2    43  PHE43       0.2290
     39  O        -24.8450   34.8090   22.8130 O.2    43  PHE43      -0.2864
     40  CB       -22.7050   36.3600   21.9190 C.3    43  PHE43       0.0560
     41  CG       -21.4920   37.2080   21.6240 C.ar   43  PHE43      -0.0200
     42  CD1      -20.2060   36.6980   21.8030 C.ar   43  PHE43      -0.0042
     43  CD2      -21.6330   38.5280   21.2050 C.ar   43  PHE43      -0.0042
     44  CE1      -19.0850   37.4870   21.5730 C.ar   43  PHE43      -0.0003
     45  CE2      -20.5110   39.3250   20.9730 C.ar   43  PHE43      -0.0003
     46  CZ       -19.2380   38.8000   21.1590 C.ar   43  PHE43      -0.0000
     47  N        -27.4610   36.5320   23.8340 N.3    45  LYS45      -0.1231
     48  CA       -28.5930   36.9020   22.9910 C.3    45  LYS45       0.1693
     49  C        -28.5990   36.2650   21.6000 C.2    45  LYS45       0.2592
     50  O        -29.6660   36.0060   21.0520 O.2    45  LYS45      -0.2718
     51  CB       -28.7030   38.4240   22.8800 C.3    45  LYS45       0.0285
     52  CG       -27.4560   39.1260   22.3660 C.3    45  LYS45       0.0035
     53  CD       -27.6420   40.6410   22.3730 C.3    45  LYS45       0.0206
     54  CE       -27.9790   41.1590   23.7720 C.3    45  LYS45       0.1093
     55  NZ       -28.1190   42.6460   23.8200 N.3    45  LYS45      -0.1314
     56  N        -27.4160   36.0040   21.0420 N.am   46  PHE46      -0.1976
     57  CA       -27.2840   35.3960   19.7100 C.3    46  PHE46       0.1639
     58  C        -28.0360   34.0790   19.5840 C.2    46  PHE46       0.2290
     59  O        -28.1320   33.3150   20.5470 O.2    46  PHE46      -0.2864
     60  CB       -25.8130   35.1230   19.3720 C.3    46  PHE46       0.0560
     61  CG       -25.0380   36.3340   18.9530 C.ar   46  PHE46      -0.0200
     62  CD1      -25.4850   37.6110   19.2490 C.ar   46  PHE46      -0.0042
     63  CD2      -23.8450   36.1890   18.2560 C.ar   46  PHE46      -0.0042
     64  CE1      -24.7580   38.7260   18.8570 C.ar   46  PHE46      -0.0003
     65  CE2      -23.1130   37.2960   17.8610 C.ar   46  PHE46      -0.0003
     66  CZ       -23.5710   38.5690   18.1620 C.ar   46  PHE46      -0.0000
     67  N        -23.2980   42.6480   14.4780 N.3    59  HIS59      -0.1241
     68  CA       -22.2600   42.8430   15.4810 C.3    59  HIS59       0.1621
     69  C        -20.8910   42.9810   14.8080 C.2    59  HIS59       0.2264
     70  O        -20.0820   43.8280   15.1950 O.2    59  HIS59      -0.2867
     71  CB       -22.2620   41.6750   16.4720 C.3    59  HIS59       0.0745
     72  CG       -21.9280   42.3530   17.7890 C.ar   59  HIS59       0.0817
     73  ND1      -22.8010   43.2250   18.4420 N.ar   59  HIS59      -0.2268
     74  CD2      -20.6620   42.3720   18.3930 C.ar   59  HIS59       0.1154
     75  CE1      -22.0250   43.8340   19.3630 C.ar   59  HIS59       0.1986
     76  NE2      -20.8040   43.3680   19.3690 N.ar   59  HIS59      -0.2212
     77  N        -20.2900   46.4360   13.4410 N.3    62  ARG62      -0.1231
     78  CA       -19.9710   47.3850   14.5040 C.3    62  ARG62       0.1694
     79  C        -18.5260   47.2780   14.9940 C.2    62  ARG62       0.2591
     80  O        -17.8980   48.2910   15.2990 O.2    62  ARG62      -0.2718
     81  CB       -20.9640   47.2450   15.6600 C.3    62  ARG62       0.0321
     82  CG       -22.3510   47.7820   15.3040 C.3    62  ARG62       0.0489
     83  CD       -23.3380   47.7100   16.4580 C.3    62  ARG62       0.2205
     84  NE       -23.8460   46.3590   16.6820 N.pl3  62  ARG62      -0.0865
     85  CZ       -25.1180   46.0730   16.9550 C.cat  62  ARG62       0.5346
     86  NH1      -26.0230   47.0430   17.0220 N.pl3  62  ARG62       0.1354
     87  NH2      -25.4910   44.8120   17.1490 N.pl3  62  ARG62       0.1354
     88  N        -17.9940   46.0590   15.0450 N.am   63  VAL63      -0.1980
     89  CA       -16.6080   45.8430   15.4660 C.3    63  VAL63       0.1595
     90  C        -15.6560   46.4810   14.4400 C.2    63  VAL63       0.2287
     91  O        -14.7820   47.2890   14.7940 O.2    63  VAL63      -0.2864
     92  CB       -16.2910   44.3250   15.6120 C.3    63  VAL63       0.0276
     93  CG1      -14.8100   44.1020   15.8950 C.3    63  VAL63       0.0022
     94  CG2      -17.1270   43.7200   16.7300 C.3    63  VAL63       0.0022
     95  N        -15.7180   50.1800   14.3360 N.3    66  ALA66      -0.1231
     96  CA       -14.9690   50.7090   15.4740 C.3    66  ALA66       0.1694
     97  C        -13.4750   50.6900   15.1630 C.2    66  ALA66       0.2591
     98  O        -12.7700   51.6530   15.4560 O.2    66  ALA66      -0.2718
     99  CB       -15.2600   49.9020   16.7300 C.3    66  ALA66       0.0304
    100  N        -13.0000   49.6010   14.5570 N.am   67  LEU67      -0.1980
    101  CA       -11.5860   49.4850   14.1840 C.3    67  LEU67       0.1596
    102  C        -11.1650   50.5180   13.1390 C.2    67  LEU67       0.2287
    103  O        -10.0970   51.1250   13.2610 O.2    67  LEU67      -0.2864
    104  CB       -11.2500   48.0760   13.6800 C.3    67  LEU67       0.0297
    105  CG       -11.2070   46.9770   14.7450 C.3    67  LEU67       0.0022
    106  CD1      -10.7950   45.6570   14.1110 C.3    67  LEU67       0.0001
    107  CD2      -10.2390   47.3680   15.8640 C.3    67  LEU67       0.0001
    108  N        -10.9570   55.0510   22.6460 N.3    81  LEU81      -0.1245
    109  CA       -11.4610   53.7320   23.0470 C.3    81  LEU81       0.1561
    110  C        -12.0190   53.6170   24.4650 C.2    81  LEU81       0.2260
    111  O        -12.5060   52.5540   24.8600 O.2    81  LEU81      -0.2867
    112  CB       -10.3700   52.6770   22.8500 C.3    81  LEU81       0.0270
    113  CG        -9.8640   52.4880   21.4190 C.3    81  LEU81       0.0019
    114  CD1       -8.8200   51.3990   21.3910 C.3    81  LEU81       0.0001
    115  CD2      -11.0280   52.1340   20.4990 C.3    81  LEU81       0.0001
    116  N        -15.5670   51.9080   25.0080 N.3    84  LEU84      -0.1245
    117  CA       -15.5350   50.4880   24.6690 C.3    84  LEU84       0.1561
    118  C        -14.7750   49.7170   25.7300 C.2    84  LEU84       0.2260
    119  O        -15.0520   48.5400   25.9700 O.2    84  LEU84      -0.2867
    120  CB       -14.8970   50.2650   23.2930 C.3    84  LEU84       0.0270
    121  CG       -15.7490   50.6570   22.0860 C.3    84  LEU84       0.0019
    122  CD1      -15.0070   50.3450   20.7850 C.3    84  LEU84       0.0001
    123  CD2      -17.0690   49.9010   22.1450 C.3    84  LEU84       0.0001
    124  N        -17.2400   49.3250   28.5170 N.3    87  LYS87      -0.1231
    125  CA       -18.2070   48.3340   28.0750 C.3    87  LYS87       0.1693
    126  C        -17.6410   46.9220   28.2480 C.2    87  LYS87       0.2592
    127  O        -18.2490   46.0860   28.9160 O.2    87  LYS87      -0.2718
    128  CB       -18.5390   48.5730   26.5980 C.3    87  LYS87       0.0285
    129  CG       -19.5560   47.6180   25.9900 C.3    87  LYS87       0.0035
    130  CD       -20.9580   47.9510   26.4520 C.3    87  LYS87       0.0206
    131  CE       -21.9760   47.0330   25.8040 C.3    87  LYS87       0.1093
    132  NZ       -21.7250   45.6070   26.1580 N.3    87  LYS87      -0.1314
    133  N        -16.4670   46.6740   27.6620 N.am   88  HIS88      -0.1976
    134  CA       -15.8160   45.3610   27.7240 C.3    88  HIS88       0.1656
    135  C        -15.1920   44.9880   29.0720 C.2    88  HIS88       0.2291
    136  O        -15.2330   43.8260   29.4810 O.2    88  HIS88      -0.2864
    137  CB       -14.7500   45.2360   26.6200 C.3    88  HIS88       0.0771
    138  CG       -15.2880   45.3030   25.2040 C.ar   88  HIS88       0.0820
    139  ND1      -15.5500   46.4990   24.5240 N.ar   88  HIS88      -0.2267
    140  CD2      -15.7100   44.1930   24.4620 C.ar   88  HIS88       0.1154
    141  CE1      -16.1540   46.1090   23.3850 C.ar   88  HIS88       0.1986
    142  NE2      -16.2480   44.8010   23.3140 N.ar   88  HIS88      -0.2212
    143  N        -19.0000   43.7760   30.6790 N.3    92  LEU92      -0.1245
    144  CA       -18.9380   42.3930   30.2080 C.3    92  LEU92       0.1561
    145  C        -17.8750   41.4920   30.8270 C.2    92  LEU92       0.2260
    146  O        -17.9450   40.2690   30.6880 O.2    92  LEU92      -0.2867
    147  CB       -18.7980   42.3820   28.6820 C.3    92  LEU92       0.0270
    148  CG       -19.8590   43.1850   27.9200 C.3    92  LEU92       0.0019
    149  CD1      -19.4080   43.4700   26.5050 C.3    92  LEU92       0.0001
    150  CD2      -21.1730   42.4300   27.9330 C.3    92  LEU92       0.0001
    151  N        -14.7590   41.0800   29.9690 N.3    94  VAL94      -0.1245
    152  CA       -14.0850   40.3620   28.8990 C.3    94  VAL94       0.1561
    153  C        -12.6250   40.1040   29.2580 C.2    94  VAL94       0.2260
    154  O        -11.8610   41.0250   29.5270 O.2    94  VAL94      -0.2867
    155  CB       -14.1560   41.1090   27.5470 C.3    94  VAL94       0.0252
    156  CG1      -13.4460   40.2970   26.4780 C.3    94  VAL94       0.0019
    157  CG2      -15.6060   41.3400   27.1440 C.3    94  VAL94       0.0019
    158  N         -8.7900   37.1930   25.4770 N.3    98  ASN98      -0.1225
    159  CA        -9.7410   37.0850   24.3750 C.3    98  ASN98       0.1785
    160  C         -9.4960   38.1140   23.2770 C.2    98  ASN98       0.2597
    161  O         -9.7470   37.8370   22.1070 O.2    98  ASN98      -0.2718
    162  CB       -11.1860   37.2050   24.8830 C.3    98  ASN98       0.1169
    163  CG       -11.6930   35.9230   25.5230 C.2    98  ASN98       0.2627
    164  OD1      -11.2810   34.8240   25.1590 O.2    98  ASN98      -0.2716
    165  ND2      -12.6020   36.0610   26.4750 N.am   98  ASN98      -0.0877
    166  N         -9.0490   39.3080   23.6530 N.am   99  PHE99      -0.1976
    167  CA        -8.7650   40.3460   22.6730 C.3    99  PHE99       0.1639
    168  C         -7.6410   39.8800   21.7390 C.2    99  PHE99       0.2290
    169  O         -7.6580   40.1760   20.5410 O.2    99  PHE99      -0.2864
    170  CB        -8.3390   41.6530   23.3540 C.3    99  PHE99       0.0560
    171  CG        -9.3920   42.2610   24.2450 C.ar   99  PHE99      -0.0200
    172  CD1      -10.6790   42.4990   23.7720 C.ar   99  PHE99      -0.0042
    173  CD2       -9.0930   42.5910   25.5620 C.ar   99  PHE99      -0.0042
    174  CE1      -11.6530   43.0570   24.6060 C.ar   99  PHE99      -0.0003
    175  CE2      -10.0590   43.1470   26.3970 C.ar   99  PHE99      -0.0003
    176  CZ       -11.3380   43.3780   25.9190 C.ar   99  PHE99      -0.0000
    177  N         -8.8460   37.0630   19.4010 N.3   102  PHE102     -0.1227
    178  CA        -9.6660   37.6970   18.3760 C.3   102  PHE102      0.1736
    179  C         -8.7820   38.4270   17.3570 C.2   102  PHE102      0.2595
    180  O         -9.0620   38.3950   16.1530 O.2   102  PHE102     -0.2718
    181  CB       -10.6550   38.6700   19.0270 C.3   102  PHE102      0.0547
    182  CG       -11.6730   39.2540   18.0730 C.ar  102  PHE102     -0.0202
    183  CD1      -12.1580   38.5100   16.9920 C.ar  102  PHE102     -0.0042
    184  CD2      -12.1640   40.5420   18.2740 C.ar  102  PHE102     -0.0042
    185  CE1      -13.1200   39.0380   16.1270 C.ar  102  PHE102     -0.0003
    186  CE2      -13.1270   41.0850   17.4190 C.ar  102  PHE102     -0.0003
    187  CZ       -13.6070   40.3280   16.3400 C.ar  102  PHE102     -0.0000
    188  N         -7.7270   39.0870   17.8340 N.am  103  ALA103     -0.1980
    189  CA        -6.8060   39.7880   16.9420 C.3   103  ALA103      0.1597
    190  C         -6.1810   38.7960   15.9450 C.2   103  ALA103      0.2287
    191  O         -6.0500   39.0950   14.7620 O.2   103  ALA103     -0.2864
    192  CB        -5.7190   40.4950   17.7450 C.3   103  ALA103      0.0319
    193  N         -8.7540   38.1240   13.2430 N.3   106  ILE106     -0.1245
    194  CA        -8.9210   39.2730   12.3640 C.3   106  ILE106      0.1561
    195  C         -7.8110   39.3100   11.3150 C.2   106  ILE106      0.2260
    196  O         -8.0520   39.6550   10.1590 O.2   106  ILE106     -0.2867
    197  CB        -8.9030   40.5870   13.1590 C.3   106  ILE106      0.0252
    198  CG1      -10.0900   40.6330   14.1200 C.3   106  ILE106      0.0019
    199  CG2       -8.9230   41.7950   12.2120 C.3   106  ILE106      0.0019
    200  CD1      -10.0710   41.8280   15.0780 C.3   106  ILE106      0.0001
    201  N         -3.4070   46.0980   16.5260 N.3   129  LEU129     -0.1245
    202  CA        -4.3710   45.3070   17.2790 C.3   129  LEU129      0.1561
    203  C         -3.8940   45.1030   18.7210 C.2   129  LEU129      0.2260
    204  O         -4.6990   45.0370   19.6570 O.2   129  LEU129     -0.2867
    205  CB        -4.6190   43.9690   16.5820 C.3   129  LEU129      0.0270
    206  CG        -5.4370   44.0910   15.2920 C.3   129  LEU129      0.0019
    207  CD1       -5.5910   42.7470   14.6200 C.3   129  LEU129      0.0001
    208  CD2       -6.7940   44.6640   15.6180 C.3   129  LEU129      0.0001
    209  N         -4.9350   48.1180   20.5650 N.3   132  VAL132     -0.1231
    210  CA        -6.3630   48.0750   20.8320 C.3   132  VAL132      0.1692
    211  C         -6.6500   47.1520   22.0240 C.2   132  VAL132      0.2591
    212  O         -7.3980   47.5150   22.9230 O.2   132  VAL132     -0.2718
    213  CB        -7.1310   47.5850   19.5810 C.3   132  VAL132      0.0266
    214  CG1       -8.6130   47.3860   19.8950 C.3   132  VAL132      0.0020
    215  CG2       -6.9530   48.5820   18.4490 C.3   132  VAL132      0.0020
    216  N         -6.0380   45.9710   22.0340 N.am  133  ALA133     -0.1980
    217  CA        -6.2310   45.0120   23.1220 C.3   133  ALA133      0.1597
    218  C         -5.8670   45.6380   24.4740 C.2   133  ALA133      0.2287
    219  O         -6.5980   45.5040   25.4590 O.2   133  ALA133     -0.2864
    220  CB        -5.3870   43.7600   22.8750 C.3   133  ALA133      0.0319
    221  N         -8.4990   48.2520   25.5250 N.3   136  LEU136     -0.1245
    222  CA        -9.7730   47.6580   25.9110 C.3   136  LEU136      0.1561
    223  C         -9.6820   46.9250   27.2480 C.2   136  LEU136      0.2260
    224  O        -10.7010   46.5460   27.8230 O.2   136  LEU136     -0.2867
    225  CB       -10.3140   46.7230   24.8210 C.3   136  LEU136      0.0270
    226  CG       -10.7660   47.3630   23.4960 C.3   136  LEU136      0.0019
    227  CD1      -11.3970   46.3060   22.6050 C.3   136  LEU136      0.0001
    228  CD2      -11.7390   48.4960   23.7360 C.3   136  LEU136      0.0001
@<TRIPOS>BOND
     1   196   195    2
     2   195   194    1
     3   199   197    1
     4   194   197    1
     5   194   193    1
     6   102   103    2
     7   102   101    1
     8   197   198    1
     9    77    78    1
    10     1     2    1
    11   104   101    1
    12   104   105    1
    13   106   105    1
    14   198   200    1
    15   101   100    1
    16    95    96    1
    17     3     2    1
    18     3     4    2
    19    90    91    2
    20    90    89    1
    21    67    68    1
    22    78    79    1
    23    78    81    1
    24   100    97   am
    25     2     5    1
    26   207   206    1
    27     5     6    1
    28   105   107    1
    29   191   190    2
    30    69    70    2
    31    69    68    1
    32    79    88   am
    33    79    80    2
    34    88    89    1
    35    97    98    2
    36    97    96    1
    37   206   208    1
    38   206   205    1
    39    82    81    1
    40    82    83    1
    41     7     6    1
    42     6     8    1
    43     9    10    1
    44    89    92    1
    45    96    99    1
    46    68    71    1
    47    92    93    1
    48    92    94    1
    49   190   189    1
    50   185   187   ar
    51   185   183   ar
    52   180   179    2
    53   187   186   ar
    54    83    84    1
    55    71    72    1
    56   201   202    1
    57   205   202    1
    58    84    85    2
    59    10    13    1
    60    10    11    1
    61   189   192    1
    62   189   188    1
    63    85    86    1
    64    85    87    1
    65   183   182   ar
    66   202   203    1
    67   179   188   am
    68   179   178    1
    69    13    14    1
    70   186   184   ar
    71    11    12    2
    72    72    74   ar
    73    72    73   ar
    74    65    66   ar
    75    65    63   ar
    76   182   184   ar
    77   182   181    1
    78    66    64   ar
    79    63    61   ar
    80   178   181    1
    81   178   177    1
    82    74    76   ar
    83    73    75   ar
    84   215   213    1
    85   203   204    2
    86    64    62   ar
    87    14    16    1
    88    14    15    1
    89    61    62   ar
    90    61    60    1
    91    75    76   ar
    92    60    57    1
    93   213   214    1
    94   213   210    1
    95    58    57    1
    96    58    59    2
    97    57    56    1
    98   115   113    1
    99   169   168    2
   100   209   210    1
   101   122   121    1
   102   210   211    1
   103    45    46   ar
   104    45    43   ar
   105    56    49   am
   106    50    49    2
   107    46    44   ar
   108    43    41   ar
   109    22    21    1
   110   114   113    1
   111   113   112    1
   112    44    42   ar
   113    49    48    1
   114    41    42   ar
   115    41    40    1
   116   168   167    1
   117    40    37    1
   118   211   216   am
   119   211   212    2
   120   216   217    1
   121   121   123    1
   122   121   120    1
   123   161   160    2
   124    52    53    1
   125    52    51    1
   126    53    54    1
   127    21    23    1
   128    21    18    1
   129   227   226    1
   130   108   109    1
   131   167   170    1
   132   167   166    1
   133    39    38    2
   134   112   109    1
   135   220   217    1
   136    51    48    1
   137    48    47    1
   138   109   110    1
   139   217   218    1
   140   160   166   am
   141   160   159    1
   142   120   117    1
   143   142   141   ar
   144   142   140   ar
   145   170   171    1
   146    37    38    1
   147    37    36    1
   148   141   139   ar
   149    19    20    2
   150    19    18    1
   151   226   228    1
   152   226   225    1
   153    18    17    1
   154    54    55    1
   155   172   171   ar
   156   172   174   ar
   157    36    26   am
   158   171   173   ar
   159   159   162    1
   160   159   158    1
   161   140   138   ar
   162   110   111    2
   163   218   219    2
   164   139   138   ar
   165   174   176   ar
   166   117   116    1
   167   117   118    1
   168   225   222    1
   169   162   163    1
   170   164   163    2
   171   138   137    1
   172    26    27    2
   173    26    25    1
   174   163   165   am
   175   221   222    1
   176    28    25    1
   177    28    29    1
   178   173   175   ar
   179   118   119    2
   180   131   132    1
   181   131   130    1
   182    24    25    1
   183   222   223    1
   184   176   175   ar
   185   129   130    1
   186   129   128    1
   187    31    29   ar
   188    31    33   ar
   189    29    30   ar
   190   156   155    1
   191   149   148    1
   192   128   125    1
   193   137   134    1
   194    33    34   ar
   195   157   155    1
   196   223   224    2
   197    30    32   ar
   198   155   152    1
   199   133   134    1
   200   133   126   am
   201   134   135    1
   202   148   150    1
   203   148   147    1
   204    34    32   ar
   205    34    35    1
   206   125   126    1
   207   125   124    1
   208   126   127    2
   209   147   144    1
   210   152   153    1
   211   152   151    1
   212   135   136    2
   213   153   154    2
   214   144   143    1
   215   144   145    1
   216   146   145    2
