@<TRIPOS>MOLECULE
tmp/1cghA00.pdb
 146 141 0 0 0
SMALL
GASTEIGER

@<TRIPOS>ATOM
      1  N          7.5270   32.3560   11.3520 N.3    28  ARG28      -0.1231
      2  CA         8.2770   31.1820   10.8840 C.3    28  ARG28       0.1694
      3  C          9.5110   31.5140   10.0390 C.2    28  ARG28       0.2592
      4  O          9.5120   32.4950    9.2930 O.2    28  ARG28      -0.2718
      5  CB         7.3500   30.2720   10.0780 C.3    28  ARG28       0.0321
      6  CG         6.8650   30.8710    8.7510 C.3    28  ARG28       0.0489
      7  CD         5.7890   31.9320    8.9490 C.3    28  ARG28       0.2205
      8  NE         5.2360   32.3980    7.6790 N.pl3  28  ARG28      -0.0865
      9  CZ         5.8190   33.2890    6.8810 C.cat  28  ARG28       0.5346
     10  NH1        6.9860   33.8280    7.2110 N.pl3  28  ARG28       0.1354
     11  NH2        5.2300   33.6430    5.7480 N.pl3  28  ARG28       0.1354
     12  N         10.5470   30.6860   10.1390 N.am   29  CYS29      -0.1970
     13  CA        11.7870   30.8780    9.3690 C.3    29  CYS29       0.1712
     14  C         12.3970   29.5190    9.0670 C.2    29  CYS29       0.2296
     15  O         11.8920   28.5170    9.5210 O.2    29  CYS29      -0.2864
     16  CB        12.8080   31.6470   10.1890 C.3    29  CYS29       0.0983
     17  SG        12.5820   33.4540   10.2600 S.3    29  CYS29      -0.0798
     18  N         17.2570   38.1100   12.5660 N.3    44  HIS44      -0.1241
     19  CA        15.9620   38.7430   12.5240 C.3    44  HIS44       0.1621
     20  C         14.8640   37.7300   12.8050 C.2    44  HIS44       0.2264
     21  O         13.7270   38.1170   13.0240 O.2    44  HIS44      -0.2867
     22  CB        15.7580   39.5420   11.2120 C.3    44  HIS44       0.0745
     23  CG        15.2680   38.7460   10.0340 C.ar   44  HIS44       0.0817
     24  ND1       16.0650   38.4600    8.9460 N.ar   44  HIS44      -0.2268
     25  CD2       14.0360   38.2610    9.7290 C.ar   44  HIS44       0.1154
     26  CE1       15.3500   37.8470    8.0190 C.ar   44  HIS44       0.1986
     27  NE2       14.1140   37.7140    8.4700 N.ar   44  HIS44      -0.2212
     28  N         19.5530   45.7400    8.8610 N.3    85  ILE85      -0.1245
     29  CA        19.5540   44.2830    8.6790 C.3    85  ILE85       0.1561
     30  C         20.9830   43.7720    8.4470 C.2    85  ILE85       0.2260
     31  O         21.2220   42.8420    7.6710 O.2    85  ILE85      -0.2867
     32  CB        18.6250   43.8580    7.5100 C.3    85  ILE85       0.0252
     33  CG1       17.3430   44.6920    7.5380 C.3    85  ILE85       0.0019
     34  CG2       18.2030   42.3950    7.6730 C.3    85  ILE85       0.0019
     35  CD1       16.3930   44.3870    6.4030 C.3    85  ILE85       0.0001
     36  N         21.8900   48.9030   -5.3620 N.3   155  ILE155     -0.1231
     37  CA        20.4570   48.7030   -5.1010 C.3   155  ILE155      0.1692
     38  C         19.9890   48.8250   -3.6500 C.2   155  ILE155      0.2592
     39  O         18.8660   49.2650   -3.3770 O.2   155  ILE155     -0.2718
     40  CB        20.0100   47.2980   -5.5690 C.3   155  ILE155      0.0266
     41  CG1       20.5450   47.0130   -6.9720 C.3   155  ILE155      0.0019
     42  CG2       18.4960   47.2050   -5.5590 C.3   155  ILE155      0.0020
     43  CD1       20.6050   45.5190   -7.3170 C.3   155  ILE155      0.0001
     44  N         20.8170   48.3550   -2.7280 N.am  156  PHE156     -0.1976
     45  CA        20.4670   48.3610   -1.3190 C.3   156  PHE156      0.1639
     46  C         21.4460   49.2580   -0.5740 C.2   156  PHE156      0.2290
     47  O         22.6480   49.0370   -0.5990 O.2   156  PHE156     -0.2864
     48  CB        20.5080   46.9180   -0.7640 C.3   156  PHE156      0.0560
     49  CG        19.5220   45.9750   -1.4230 C.ar  156  PHE156     -0.0200
     50  CD1       18.1540   46.0630   -1.1360 C.ar  156  PHE156     -0.0042
     51  CD2       19.9590   45.0120   -2.3410 C.ar  156  PHE156     -0.0042
     52  CE1       17.2340   45.2220   -1.7410 C.ar  156  PHE156     -0.0003
     53  CE2       19.0530   44.1670   -2.9520 C.ar  156  PHE156     -0.0003
     54  CZ        17.6930   44.2680   -2.6590 C.ar  156  PHE156     -0.0000
     55  N         14.6240   33.4340   -3.1160 N.3   176  ALA176     -0.1231
     56  CA        14.1660   32.9970   -1.7950 C.3   176  ALA176      0.1694
     57  C         13.1510   34.1240   -1.5030 C.2   176  ALA176      0.2592
     58  O         13.2900   35.2200   -2.0270 O.2   176  ALA176     -0.2718
     59  CB        15.2800   33.0150   -0.8130 C.3   176  ALA176      0.0304
     60  N         12.1430   33.8730   -0.6910 N.am  177  PHE177     -0.1962
     61  CA        11.1040   34.8680   -0.4280 C.3   177  PHE177      0.1771
     62  C         10.6340   34.7560    1.0190 C.2   177  PHE177      0.2619
     63  O         11.2970   34.1160    1.8370 O.2   177  PHE177     -0.2715
     64  CB         9.9550   34.6330   -1.4150 C.3   177  PHE177      0.0574
     65  CG         9.0300   35.8010   -1.5860 C.ar  177  PHE177     -0.0200
     66  CD1        9.5230   37.1150   -1.5760 C.ar  177  PHE177     -0.0042
     67  CD2        7.6550   35.5850   -1.7430 C.ar  177  PHE177     -0.0042
     68  CE1        8.6460   38.1990   -1.7190 C.ar  177  PHE177     -0.0003
     69  CE2        6.7710   36.6420   -1.8870 C.ar  177  PHE177     -0.0003
     70  CZ         7.2610   37.9550   -1.8740 C.ar  177  PHE177     -0.0000
     71  N          9.5110   35.3790    1.3540 N.am  178  LYS178     -0.1963
     72  CA         8.9930   35.3800    2.7280 C.3   178  LYS178      0.1728
     73  C          8.8130   34.0040    3.3100 C.2   178  LYS178      0.2616
     74  O          8.0970   33.1770    2.7440 O.2   178  LYS178     -0.2715
     75  CB         7.6710   36.1460    2.7940 C.3   178  LYS178      0.0311
     76  CG         7.8640   37.6170    2.4370 C.3   178  LYS178      0.0038
     77  CD         6.5520   38.3460    2.1530 C.3   178  LYS178      0.0206
     78  CE         6.7230   39.8910    2.2360 C.3   178  LYS178      0.1093
     79  NZ         7.8180   40.5220    1.3850 N.3   178  LYS178     -0.1314
     80  N          9.4240   33.7680    4.4700 N.am  179  GLY179     -0.1955
     81  CA         9.3350   32.4550    5.0810 C.3   179  GLY179      0.1869
     82  C         10.6140   31.6570    4.8680 C.2   179  GLY179      0.2309
     83  O         10.8820   30.7280    5.6120 O.2   179  GLY179     -0.2863
     84  N         13.7180   33.0260    5.0550 N.3   181  SER181     -0.1217
     85  CA        14.8190   33.6190    5.8310 C.3   181  SER181      0.1889
     86  C         15.4630   32.5810    6.7400 C.2   181  SER181      0.2288
     87  O         14.7480   31.7610    7.3340 O.2   181  SER181     -0.2866
     88  CB        14.3190   34.7660    6.7220 C.3   181  SER181      0.2089
     89  OG        13.9880   35.9330    5.9660 O.3   181  SER181     -0.2183
     90  N         19.6680   33.1990    3.9870 N.3   195  VAL195     -0.1231
     91  CA        18.6470   34.0590    3.3830 C.3   195  VAL195      0.1692
     92  C         18.3840   35.1930    4.3730 C.2   195  VAL195      0.2593
     93  O         18.0370   34.9230    5.5390 O.2   195  VAL195     -0.2718
     94  CB        17.3440   33.3020    3.1450 C.3   195  VAL195      0.0266
     95  CG1       16.2400   34.2770    2.6460 C.3   195  VAL195      0.0020
     96  CG2       17.5740   32.1970    2.1080 C.3   195  VAL195      0.0020
     97  N         18.5500   36.4390    3.9220 N.am  196  SER196     -0.1938
     98  CA        18.3120   37.5760    4.8060 C.3   196  SER196      0.2055
     99  C         17.1490   38.5100    4.3820 C.2   196  SER196      0.2643
    100  O         16.0970   38.5490    5.0360 O.2   196  SER196     -0.2714
    101  CB        19.6080   38.3840    4.9770 C.3   196  SER196      0.2130
    102  OG        19.4040   39.4330    5.9210 O.3   196  SER196     -0.2179
    103  N         17.3120   39.2230    3.2730 N.am  197  TYR197     -0.1959
    104  CA        16.2740   40.1570    2.8330 C.3   197  TYR197      0.1771
    105  C         16.3320   40.4990    1.3430 C.2   197  TYR197      0.2620
    106  O         17.2910   40.1500    0.6400 O.2   197  TYR197     -0.2715
    107  CB        16.3810   41.4700    3.6630 C.3   197  TYR197      0.0574
    108  CG        17.5650   42.3740    3.3470 C.ar  197  TYR197     -0.0198
    109  CD1       18.8010   42.2130    3.9810 C.ar  197  TYR197     -0.0009
    110  CD2       17.4300   43.4250    2.4230 C.ar  197  TYR197     -0.0009
    111  CE1       19.8580   43.0670    3.7100 C.ar  197  TYR197      0.0417
    112  CE2       18.4750   44.2860    2.1470 C.ar  197  TYR197      0.0417
    113  CZ        19.6820   44.1110    2.7860 C.ar  197  TYR197      0.1957
    114  OH        20.7010   44.9950    2.5270 O.3   197  TYR197     -0.2866
    115  N         15.3190   41.2200    0.8820 N.am  198  GLY198     -0.1940
    116  CA        15.2850   41.6450   -0.5070 C.3   198  GLY198      0.2014
    117  C         14.0980   42.5780   -0.6990 C.2   198  GLY198      0.2639
    118  O         13.5710   43.1220    0.2820 O.2   198  GLY198     -0.2714
    119  N         13.6670   42.7590   -1.9510 N.am  199  LYS199     -0.1963
    120  CA        12.5190   43.6140   -2.2780 C.3   199  LYS199      0.1728
    121  C         11.2030   42.9280   -1.9550 C.2   199  LYS199      0.2616
    122  O         11.0660   41.6980   -2.0590 O.2   199  LYS199     -0.2715
    123  CB        12.5370   43.9950   -3.7520 C.3   199  LYS199      0.0311
    124  CG        13.7980   44.6960   -4.1740 C.3   199  LYS199      0.0038
    125  CD        13.7160   45.0600   -5.6310 C.3   199  LYS199      0.0206
    126  CE        15.1120   45.2570   -6.2370 C.3   199  LYS199      0.1093
    127  NZ        15.9170   43.9790   -6.4570 N.3   199  LYS199     -0.1314
    128  N         10.2150   43.7280   -1.5850 N.am  200  SER200     -0.1950
    129  CA         8.9140   43.1830   -1.2480 C.3   200  SER200      0.1924
    130  C          8.3020   42.4240   -2.4460 C.2   200  SER200      0.2314
    131  O          7.4680   41.5230   -2.2770 O.2   200  SER200     -0.2863
    132  CB         7.9830   44.3220   -0.7950 C.3   200  SER200      0.2116
    133  OG         7.0700   43.8770    0.2070 O.3   200  SER200     -0.2180
    134  N          9.8810   40.4440   -4.4330 N.3   202  GLY202     -0.1225
    135  CA        10.4850   39.1280   -4.5360 C.3   202  GLY202      0.1811
    136  C         11.4210   39.0920   -5.7390 C.2   202  GLY202      0.2280
    137  O         12.0760   38.0650   -6.0360 O.2   202  GLY202     -0.2866
    138  N         18.7820   39.7360   -4.3280 N.3   206  GLU206     -0.1245
    139  CA        18.4240   39.8030   -2.9220 C.3   206  GLU206      0.1567
    140  C         19.7180   39.5860   -2.1270 C.2   206  GLU206      0.2260
    141  O         20.7630   39.2440   -2.6930 O.2   206  GLU206     -0.2867
    142  CB        17.3290   38.7790   -2.5970 C.3   206  GLU206      0.0388
    143  CG        17.7670   37.3340   -2.8250 C.3   206  GLU206      0.1160
    144  CD        16.6220   36.3520   -2.7820 C.2   206  GLU206      0.3649
    145  OE1       15.4950   36.7160   -2.3960 O.co2 206  GLU206     -0.2457
    146  OE2       16.8600   35.1970   -3.1430 O.co2 206  GLU206     -0.2457
@<TRIPOS>BOND
     1    43    41    1
     2    41    40    1
     3   127   126    1
     4   126   125    1
     5   137   136    2
     6   136   135    1
     7   125   124    1
     8    40    42    1
     9    40    37    1
    10    36    37    1
    11    37    38    1
    12   135   134    1
    13   138   139    1
    14   124   123    1
    15   123   120    1
    16    38    39    2
    17    38    44   am
    18   146   144   ar
    19    55    56    1
    20    53    54   ar
    21    53    51   ar
    22   139   142    1
    23   139   140    1
    24   143   144    1
    25   143   142    1
    26   144   145   ar
    27    44    45    1
    28   141   140    2
    29    54    52   ar
    30   130   131    2
    31   130   129    1
    32    51    49   ar
    33   120   121    1
    34   120   119    1
    35   122   121    2
    36    58    57    2
    37   121   128   am
    38   119   117   am
    39    69    70   ar
    40    69    67   ar
    41    70    68   ar
    42    56    57    1
    43    56    59    1
    44    67    65   ar
    45    52    50   ar
    46    68    66   ar
    47    65    66   ar
    48    65    64    1
    49   128   129    1
    50    57    60   am
    51    49    50   ar
    52    49    48    1
    53    64    61    1
    54    45    48    1
    55    45    46    1
    56   129   132    1
    57   132   133    1
    58   117   116    1
    59   117   118    2
    60    60    61    1
    61    47    46    2
    62   116   115    1
    63    61    62    1
    64   106   105    2
    65   115   105   am
    66    62    71   am
    67    62    63    2
    68   105   104    1
    69    71    72    1
    70    79    78    1
    71    96    94    1
    72   112   110   ar
    73   112   113   ar
    74    77    78    1
    75    77    76    1
    76   110   108   ar
    77    76    75    1
    78   114   113    1
    79    95    94    1
    80    72    75    1
    81    72    73    1
    82    74    73    2
    83   113   111   ar
    84   104   103    1
    85   104   107    1
    86    94    91    1
    87   103    99   am
    88    73    80   am
    89   108   107    1
    90   108   109   ar
    91    91    90    1
    92    91    92    1
    93   111   109   ar
    94    97    92   am
    95    97    98    1
    96    92    93    2
    97    99    98    1
    98    99   100    2
    99    80    81    1
   100    98   101    1
   101    82    81    1
   102    82    83    2
   103   101   102    1
   104    84    85    1
   105    11     9    1
   106    85    88    1
   107    85    86    1
   108    89    88    1
   109    35    33    1
   110    86    87    2
   111     9    10    1
   112     9     8    2
   113    32    33    1
   114    32    34    1
   115    32    29    1
   116    31    30    2
   117     8     7    1
   118    26    27   ar
   119    26    24   ar
   120    30    29    1
   121    27    25   ar
   122    29    28    1
   123     6     7    1
   124     6     5    1
   125    24    23   ar
   126    14    13    1
   127    14    15    2
   128     4     3    2
   129    13    12    1
   130    13    16    1
   131    25    23   ar
   132    23    22    1
   133     3    12   am
   134     3     2    1
   135     5     2    1
   136    16    17    1
   137     2     1    1
   138    22    19    1
   139    19    18    1
   140    19    20    1
   141    20    21    2
