@<TRIPOS>MOLECULE
tmp/1cgkA00.pdb
 154 147 0 0 0
SMALL
GASTEIGER

@<TRIPOS>ATOM
      1  N         26.6370   49.7100   57.3460 N.3   130  THR130     -0.1203
      2  CA        25.3780   49.3200   57.9790 C.3   130  THR130      0.1994
      3  C         25.1880   47.8140   57.8810 C.2   130  THR130      0.2618
      4  O         24.1380   47.2950   58.2340 O.2   130  THR130     -0.2717
      5  CB        24.2330   50.0350   57.2170 C.3   130  THR130      0.1784
      6  OG1       24.5870   51.4150   57.0950 O.3   130  THR130     -0.2211
      7  CG2       22.8970   49.9720   57.9360 C.3   130  THR130      0.0376
      8  N         26.1610   47.0990   57.3820 N.am  131  SER131     -0.1951
      9  CA        26.0890   45.7040   56.9810 C.3   131  SER131      0.1924
     10  C         26.9970   44.8210   57.8330 C.2   131  SER131      0.2314
     11  O         28.1720   44.6760   57.5100 O.2   131  SER131     -0.2863
     12  CB        26.5650   45.6470   55.4890 C.3   131  SER131      0.2116
     13  OG        25.8650   46.6310   54.7090 O.3   131  SER131     -0.2180
     14  N         23.5380   53.4330   59.1860 N.3   161  GLY161     -0.1210
     15  CA        22.3510   53.8010   58.4180 C.3   161  GLY161      0.1956
     16  C         22.6640   54.8450   57.3610 C.2   161  GLY161      0.2612
     17  O         23.8190   55.2590   57.1620 O.2   161  GLY161     -0.2717
     18  N         21.6590   55.2580   56.5780 N.am  162  CYS162     -0.1970
     19  CA        21.8520   55.9850   55.3470 C.3   162  CYS162      0.1712
     20  C         22.4040   57.3870   55.4340 C.2   162  CYS162      0.2296
     21  O         22.9190   57.8580   54.4060 O.2   162  CYS162     -0.2864
     22  CB        20.5390   56.1620   54.5730 C.3   162  CYS162      0.0983
     23  SG        19.8720   54.5930   54.0090 S.3   162  CYS162     -0.0798
     24  N         28.9330   48.9810   51.8330 N.3   190  GLU190     -0.1231
     25  CA        27.6220   48.5270   52.2170 C.3   190  GLU190      0.1699
     26  C         27.2450   47.3070   51.3850 C.2   190  GLU190      0.2592
     27  O         27.3650   47.3750   50.1440 O.2   190  GLU190     -0.2718
     28  CB        26.6060   49.6550   51.9440 C.3   190  GLU190      0.0402
     29  CG        26.8660   50.9090   52.7560 C.3   190  GLU190      0.1161
     30  CD        26.5400   50.7430   54.2560 C.2   190  GLU190      0.3649
     31  OE1       26.2740   49.6370   54.7600 O.co2 190  GLU190     -0.2457
     32  OE2       26.4580   51.7950   54.8970 O.co2 190  GLU190     -0.2457
     33  N         26.7470   46.2600   52.0330 N.am  191  VAL191     -0.1966
     34  CA        26.4530   45.0230   51.2470 C.3   191  VAL191      0.1727
     35  C         25.1030   44.5170   51.6770 C.2   191  VAL191      0.2616
     36  O         24.9670   44.2330   52.8980 O.2   191  VAL191     -0.2715
     37  CB        27.5250   43.9790   51.5520 C.3   191  VAL191      0.0290
     38  CG1       27.2170   42.6550   50.8160 C.3   191  VAL191      0.0023
     39  CG2       28.9110   44.4380   51.1570 C.3   191  VAL191      0.0023
     40  N         24.1020   44.4090   50.8180 N.am  192  THR192     -0.1951
     41  CA        22.7450   44.1200   51.1930 C.3   192  THR192      0.1897
     42  C         22.4470   42.6810   51.5780 C.2   192  THR192      0.2313
     43  O         21.2870   42.3650   51.9410 O.2   192  THR192     -0.2863
     44  CB        21.7630   44.4450   50.0250 C.3   192  THR192      0.1794
     45  OG1       22.2460   43.8150   48.8420 O.3   192  THR192     -0.2208
     46  CG2       21.7280   45.9290   49.7110 C.3   192  THR192      0.0378
     47  N         22.9110   41.4270   54.3320 N.3   194  VAL194     -0.1231
     48  CA        22.3430   41.4150   55.6890 C.3   194  VAL194      0.1692
     49  C         20.8790   41.7440   55.7180 C.2   194  VAL194      0.2592
     50  O         20.1460   41.4100   56.6640 O.2   194  VAL194     -0.2718
     51  CB        23.2080   42.3630   56.5620 C.3   194  VAL194      0.0266
     52  CG1       22.8860   43.8260   56.2300 C.3   194  VAL194      0.0020
     53  CG2       23.0140   42.1080   58.0320 C.3   194  VAL194      0.0020
     54  N         20.3660   42.4170   54.6800 N.am  195  THR195     -0.1953
     55  CA        19.0220   42.8920   54.6000 C.3   195  THR195      0.1897
     56  C         18.1030   42.2190   53.6010 C.2   195  THR195      0.2313
     57  O         16.8930   42.3550   53.7210 O.2   195  THR195     -0.2863
     58  CB        19.0250   44.4270   54.3190 C.3   195  THR195      0.1794
     59  OG1       17.6850   44.8480   54.6740 O.3   195  THR195     -0.2208
     60  CG2       19.3440   44.7590   52.8990 C.3   195  THR195      0.0378
     61  N         17.6290   49.0580   47.7860 N.3   213  PHE213     -0.1227
     62  CA        18.9850   48.9440   48.2950 C.3   213  PHE213      0.1736
     63  C         19.8900   48.1350   47.3870 C.2   213  PHE213      0.2596
     64  O         19.5480   47.0450   46.9030 O.2   213  PHE213     -0.2718
     65  CB        18.9780   48.3510   49.7300 C.3   213  PHE213      0.0547
     66  CG        18.3410   49.2020   50.8060 C.ar  213  PHE213     -0.0202
     67  CD1       18.8210   50.4640   51.0820 C.ar  213  PHE213     -0.0042
     68  CD2       17.3570   48.6890   51.6230 C.ar  213  PHE213     -0.0042
     69  CE1       18.2970   51.2280   52.1250 C.ar  213  PHE213     -0.0003
     70  CE2       16.7860   49.4470   52.6440 C.ar  213  PHE213     -0.0003
     71  CZ        17.2470   50.7210   52.8960 C.ar  213  PHE213     -0.0000
     72  N         21.1090   48.6560   47.2350 N.am  214  GLY214     -0.1942
     73  CA        22.1180   48.0480   46.3570 C.3   214  GLY214      0.2014
     74  C         23.4860   48.1070   47.0140 C.2   214  GLY214      0.2638
     75  O         23.6850   48.7830   48.0490 O.2   214  GLY214     -0.2714
     76  N         24.4720   47.4150   46.4450 N.am  215  ASP215     -0.1971
     77  CA        25.7810   47.3840   47.0930 C.3   215  ASP215      0.1709
     78  C         26.8540   48.2880   46.5020 C.2   215  ASP215      0.2293
     79  O         26.8540   48.4820   45.2810 O.2   215  ASP215     -0.2864
     80  CB        26.3920   45.9740   47.0710 C.3   215  ASP215      0.1436
     81  CG        25.5010   44.8890   47.6490 C.2   215  ASP215      0.3671
     82  OD1       24.3900   45.1740   48.1210 O.co2 215  ASP215     -0.2456
     83  OD2       25.9280   43.7090   47.6600 O.co2 215  ASP215     -0.2456
     84  N         12.1600   55.6610   60.3380 N.3   252  ILE252     -0.1245
     85  CA        13.0010   54.6660   59.6880 C.3   252  ILE252      0.1561
     86  C         13.7740   53.8870   60.7560 C.2   252  ILE252      0.2260
     87  O         14.5110   54.4930   61.5640 O.2   252  ILE252     -0.2867
     88  CB        14.0860   55.3040   58.8000 C.3   252  ILE252      0.0252
     89  CG1       13.5430   56.2880   57.7640 C.3   252  ILE252      0.0019
     90  CG2       14.9030   54.2100   58.1060 C.3   252  ILE252      0.0019
     91  CD1       14.6000   57.1200   57.0620 C.3   252  ILE252      0.0001
     92  N         15.8210   50.0460   61.8660 N.3   254  GLY254     -0.1225
     93  CA        16.4340   48.8190   61.3340 C.3   254  GLY254      0.1811
     94  C         16.9340   48.0610   62.5710 C.2   254  GLY254      0.2280
     95  O         17.6970   48.6280   63.3530 O.2   254  GLY254     -0.2866
     96  N         19.0910   41.9290   59.2780 N.3   261  LEU261     -0.1231
     97  CA        18.7150   43.3280   59.5260 C.3   261  LEU261      0.1693
     98  C         17.3650   43.5740   58.8890 C.2   261  LEU261      0.2593
     99  O         17.2180   43.3680   57.6660 O.2   261  LEU261     -0.2718
    100  CB        19.7750   44.2360   58.9020 C.3   261  LEU261      0.0284
    101  CG        19.5000   45.7420   59.0140 C.3   261  LEU261      0.0019
    102  CD1       19.5550   46.1390   60.5060 C.3   261  LEU261      0.0001
    103  CD2       20.5940   46.4760   58.2270 C.3   261  LEU261      0.0001
    104  N         16.3970   43.9910   59.7020 N.am  262  THR262     -0.1939
    105  CA        15.0720   44.2410   59.1490 C.3   262  THR262      0.2028
    106  C         14.9670   45.7410   58.8830 C.2   262  THR262      0.2642
    107  O         15.7840   46.5560   59.3450 O.2   262  THR262     -0.2714
    108  CB        13.9900   43.7410   60.1110 C.3   262  THR262      0.1808
    109  OG1       14.1610   44.3890   61.4030 O.3   262  THR262     -0.2208
    110  CG2       14.0820   42.2410   60.3520 C.3   262  THR262      0.0379
    111  N         14.1060   46.1180   57.9500 N.am  263  PHE263     -0.1973
    112  CA        13.9430   47.5160   57.5670 C.3   263  PHE263      0.1639
    113  C         12.4880   47.8880   57.7540 C.2   263  PHE263      0.2290
    114  O         11.6130   47.1050   57.3440 O.2   263  PHE263     -0.2864
    115  CB        14.4490   47.6450   56.1130 C.3   263  PHE263      0.0560
    116  CG        14.1470   48.9380   55.4320 C.ar  263  PHE263     -0.0200
    117  CD1       14.7220   50.1080   55.8460 C.ar  263  PHE263     -0.0042
    118  CD2       13.1820   48.9690   54.4080 C.ar  263  PHE263     -0.0042
    119  CE1       14.3840   51.3310   55.2760 C.ar  263  PHE263     -0.0003
    120  CE2       12.8530   50.1760   53.8160 C.ar  263  PHE263     -0.0003
    121  CZ        13.4760   51.3330   54.2300 C.ar  263  PHE263     -0.0000
    122  N         20.1640   52.6050   46.0090 N.3   334  ASN334     -0.1225
    123  CA        20.4710   53.2200   47.3010 C.3   334  ASN334      0.1785
    124  C         21.4950   52.3490   48.0320 C.2   334  ASN334      0.2597
    125  O         21.1500   51.2730   48.5420 O.2   334  ASN334     -0.2718
    126  CB        19.2080   53.4010   48.1200 C.3   334  ASN334      0.1169
    127  CG        19.4060   53.8230   49.5770 C.2   334  ASN334      0.2627
    128  OD1       20.5240   53.9510   50.0690 O.2   334  ASN334     -0.2716
    129  ND2       18.2960   54.0790   50.2490 N.am  334  ASN334     -0.0877
    130  N         22.7210   52.8080   48.0310 N.am  335  MET335     -0.1965
    131  CA        23.8330   52.1140   48.6860 C.3   335  MET335      0.1736
    132  C         24.1280   52.6370   50.0890 C.2   335  MET335      0.2617
    133  O         25.2580   52.6310   50.5920 O.2   335  MET335     -0.2715
    134  CB        25.0920   52.1890   47.8180 C.3   335  MET335      0.0427
    135  CG        25.0430   51.5190   46.4420 C.3   335  MET335      0.0599
    136  SD        26.4600   51.9030   45.3900 S.3   335  MET335     -0.1393
    137  CE        26.2500   53.6510   45.0730 C.3   335  MET335      0.0692
    138  N         23.0560   53.0500   50.7600 N.am  336  SER336     -0.1950
    139  CA        23.1410   53.5520   52.1480 C.3   336  SER336      0.1924
    140  C         24.2700   54.5390   52.2680 C.2   336  SER336      0.2314
    141  O         24.3900   55.3990   51.3550 O.2   336  SER336     -0.2863
    142  CB        23.2460   52.3600   53.1100 C.3   336  SER336      0.2116
    143  OG        23.2970   52.8350   54.4740 O.3   336  SER336     -0.2180
    144  N         18.4580   59.5820   57.1580 N.3   372  GLY372     -0.1210
    145  CA        18.3640   58.1910   57.6370 C.3   372  GLY372      0.1940
    146  C         17.6570   58.1320   58.9840 C.2   372  GLY372      0.2453
    147  O         16.9880   59.0780   59.4000 O.2   372  GLY372     -0.2732
    148  N         17.8290   57.0150   59.7080 N.am  373  PRO373     -0.2728
    149  CA        17.1260   56.7890   60.9480 C.3   373  PRO373      0.1401
    150  C         17.2670   57.9110   61.9450 C.2   373  PRO373      0.2269
    151  O         18.3720   58.4020   62.1850 O.2   373  PRO373     -0.2865
    152  CB        17.7170   55.4710   61.4810 C.3   373  PRO373      0.0296
    153  CG        18.1940   54.7600   60.2260 C.3   373  PRO373      0.0237
    154  CD        18.6410   55.8480   59.2620 C.3   373  PRO373      0.0939
@<TRIPOS>BOND
     1   137   136    1
     2    79    78    2
     3   136   135    1
     4   122   123    1
     5    73    74    1
     6    73    72    1
     7   135   134    1
     8    76    74   am
     9    76    77    1
    10    78    77    1
    11    64    63    2
    12    74    75    2
    13    80    77    1
    14    80    81    1
    15    72    63   am
    16   123   124    1
    17   123   126    1
    18    63    62    1
    19    81    83   ar
    20    81    82   ar
    21    61    62    1
    22   134   131    1
    23   130   124   am
    24   130   131    1
    25   124   125    2
    26   126   127    1
    27    62    65    1
    28   131   132    1
    29    45    44    1
    30   127   128    2
    31   127   129   am
    32    46    44    1
    33    65    66    1
    34    44    41    1
    35   132   133    2
    36   132   138   am
    37    27    26    2
    38   138   139    1
    39    66    67   ar
    40    66    68   ar
    41    38    37    1
    42    40    41    1
    43    40    35   am
    44    67    69   ar
    45    39    37    1
    46    41    42    1
    47    34    37    1
    48    34    35    1
    49    34    33    1
    50   141   140    2
    51    26    33   am
    52    26    25    1
    53    42    43    2
    54    68    70   ar
    55    35    36    2
    56    24    25    1
    57    28    25    1
    58    28    29    1
    59    69    71   ar
    60   139   140    1
    61   139   142    1
    62    70    71   ar
    63    29    30    1
    64    60    58    1
    65   142   143    1
    66    56    57    2
    67    56    55    1
    68   120   121   ar
    69   120   118   ar
    70    23    22    1
    71   121   119   ar
    72    30    31   ar
    73    30    32   ar
    74    58    55    1
    75    58    59    1
    76    47    48    1
    77    21    20    2
    78   118   116   ar
    79    22    19    1
    80    55    54    1
    81    54    49   am
    82    13    12    1
    83   119   117   ar
    84    19    20    1
    85    19    18    1
    86   116   117   ar
    87   116   115    1
    88    12     9    1
    89    48    49    1
    90    48    51    1
    91    49    50    2
    92   115   112    1
    93    52    51    1
    94    51    53    1
    95    18    16   am
    96     9     8    1
    97     9    10    1
    98    91    89    1
    99     6     5    1
   100   144   145    1
   101    17    16    2
   102     5     7    1
   103     5     2    1
   104   114   113    2
   105     1     2    1
   106    16    15    1
   107     8     3   am
   108    11    10    2
   109   112   113    1
   110   112   111    1
   111   145   146    1
   112    99    98    2
   113    89    88    1
   114     3     2    1
   115     3     4    2
   116   111   106   am
   117    90    88    1
   118   103   101    1
   119    15    14    1
   120    88    85    1
   121   106   105    1
   122   106   107    2
   123    98    97    1
   124    98   104   am
   125   100   101    1
   126   100    97    1
   127   146   147    2
   128   146   148   am
   129   101   102    1
   130   105   104    1
   131   105   108    1
   132   154   148    1
   133   154   153    1
   134    96    97    1
   135    85    84    1
   136    85    86    1
   137   148   149    1
   138   108   110    1
   139   108   109    1
   140   153   152    1
   141    86    87    2
   142   149   152    1
   143   149   150    1
   144    93    92    1
   145    93    94    1
   146   150   151    2
   147    94    95    2
