@<TRIPOS>MOLECULE
tmp/1cglA00.pdb
 171 171 0 0 0
SMALL
GASTEIGER

@<TRIPOS>ATOM
      1  N         30.4680   50.1400    8.2000 N.3    72  SER72      -0.1217
      2  CA        29.6850   49.4060    7.2190 C.3    72  SER72       0.1889
      3  C         29.0930   48.1410    7.8830 C.2    72  SER72       0.2288
      4  O         29.6670   47.0460    7.8220 O.2    72  SER72      -0.2866
      5  CB        30.5200   49.1050    5.9740 C.3    72  SER72       0.2089
      6  OG        30.6670   50.2800    5.1710 O.3    72  SER72      -0.2183
      7  N         23.6600   43.3560    7.4350 N.3    75  ASP75      -0.1239
      8  CA        22.2130   43.3870    7.3080 C.3    75  ASP75       0.1674
      9  C         21.3730   42.2330    7.8530 C.2    75  ASP75       0.2266
     10  O         20.1400   42.2240    7.6960 O.2    75  ASP75      -0.2867
     11  CB        21.9150   43.5700    5.8220 C.3    75  ASP75       0.1410
     12  CG        22.5300   42.4610    4.9460 C.2    75  ASP75       0.3668
     13  OD1       23.3040   41.5920    5.4620 O.co2  75  ASP75      -0.2456
     14  OD2       22.2070   42.4480    3.7320 O.co2  75  ASP75      -0.2456
     15  N         21.1340   38.8710    1.8200 N.3    79  GLY79      -0.1210
     16  CA        21.7860   40.0540    1.2910 C.3    79  GLY79       0.1956
     17  C         23.3000   40.0480    1.3500 C.2    79  GLY79       0.2612
     18  O         23.9420   39.1590    0.7880 O.2    79  GLY79      -0.2717
     19  N         23.8730   41.0600    1.9960 N.am   80  ASN80      -0.1960
     20  CA        25.3280   41.1880    2.1400 C.3    80  ASN80       0.1819
     21  C         25.8260   40.0680    3.0380 C.2    80  ASN80       0.2621
     22  O         25.3710   39.9370    4.1860 O.2    80  ASN80      -0.2715
     23  CB        25.6930   42.5430    2.7390 C.3    80  ASN80       0.1195
     24  CG        27.1800   42.8210    2.6820 C.2    80  ASN80       0.2630
     25  OD1       27.9590   42.0570    2.0820 O.2    80  ASN80      -0.2716
     26  ND2       27.5870   43.9330    3.2810 N.am   80  ASN80      -0.0877
     27  N         26.7240   39.2490    2.5020 N.am   81  LEU81      -0.1963
     28  CA        27.2590   38.0970    3.2200 C.3    81  LEU81       0.1728
     29  C         28.5940   38.3520    3.8460 C.2    81  LEU81       0.2616
     30  O         28.9450   37.7130    4.8130 O.2    81  LEU81      -0.2715
     31  CB        27.4290   36.8930    2.2930 C.3    81  LEU81       0.0311
     32  CG        26.3730   36.5190    1.2700 C.3    81  LEU81       0.0022
     33  CD1       26.8850   35.3770    0.4380 C.3    81  LEU81       0.0001
     34  CD2       25.0710   36.1850    1.9640 C.3    81  LEU81       0.0001
     35  N         29.3810   39.2170    3.2410 N.am   82  ALA82      -0.1963
     36  CA        30.7080   39.5070    3.7580 C.3    82  ALA82       0.1728
     37  C         31.2680   40.6790    2.9860 C.2    82  ALA82       0.2616
     38  O         30.5570   41.2780    2.1820 O.2    82  ALA82      -0.2715
     39  CB        31.6160   38.2850    3.5930 C.3    82  ALA82       0.0334
     40  N         32.4850   41.0850    3.3220 N.am   83  HIS83      -0.1959
     41  CA        33.1700   42.1740    2.6280 C.3    83  HIS83       0.1787
     42  C         34.6080   42.2730    3.1040 C.2    83  HIS83       0.2620
     43  O         34.8990   41.9960    4.2630 O.2    83  HIS83      -0.2715
     44  CB        32.4280   43.5210    2.7510 C.3    83  HIS83       0.0785
     45  CG        32.2600   44.0290    4.1530 C.ar   83  HIS83       0.0821
     46  ND1       31.1110   44.6220    4.6150 N.ar   83  HIS83      -0.2267
     47  CD2       33.1330   44.0730    5.1910 C.ar   83  HIS83       0.1154
     48  CE1       31.3230   44.9930    5.8800 C.ar   83  HIS83       0.1986
     49  NE2       32.5420   44.6810    6.2760 N.ar   83  HIS83      -0.2212
     50  N         35.5140   42.6400    2.2140 N.am   84  ALA84      -0.1963
     51  CA        36.9050   42.7500    2.5820 C.3    84  ALA84       0.1728
     52  C         37.4370   44.0850    2.1230 C.2    84  ALA84       0.2616
     53  O         36.8720   44.6960    1.2090 O.2    84  ALA84      -0.2715
     54  CB        37.6790   41.6630    1.9480 C.3    84  ALA84       0.0334
     55  N         38.5210   44.5420    2.7510 N.am   85  PHE85      -0.1974
     56  CA        39.1480   45.8200    2.3950 C.3    85  PHE85       0.1639
     57  C         40.3750   45.5720    1.5230 C.2    85  PHE85       0.2290
     58  O         41.0900   44.5710    1.7070 O.2    85  PHE85      -0.2864
     59  CB        39.5750   46.5830    3.6470 C.3    85  PHE85       0.0560
     60  CG        38.4940   46.7230    4.6660 C.ar   85  PHE85      -0.0200
     61  CD1       37.5890   47.7670    4.5970 C.ar   85  PHE85      -0.0042
     62  CD2       38.3650   45.7910    5.6890 C.ar   85  PHE85      -0.0042
     63  CE1       36.5610   47.8810    5.5390 C.ar   85  PHE85      -0.0003
     64  CE2       37.3410   45.8990    6.6310 C.ar   85  PHE85      -0.0003
     65  CZ        36.4460   46.9440    6.5490 C.ar   85  PHE85      -0.0000
     66  N         25.4720   29.0330    1.3240 N.3   110  TYR110     -0.1241
     67  CA        26.6020   29.7860    1.8590 C.3   110  TYR110      0.1605
     68  C         27.8040   28.9960    2.3280 C.2   110  TYR110      0.2264
     69  O         28.1720   28.9730    3.4860 O.2   110  TYR110     -0.2867
     70  CB        26.1780   30.9730    2.7410 C.3   110  TYR110      0.0534
     71  CG        25.1810   31.8970    2.0120 C.ar  110  TYR110     -0.0201
     72  CD1       25.1380   31.9590    0.6050 C.ar  110  TYR110     -0.0009
     73  CD2       24.1800   32.5580    2.7170 C.ar  110  TYR110     -0.0009
     74  CE1       24.1250   32.6250   -0.0610 C.ar  110  TYR110      0.0417
     75  CE2       23.1650   33.2250    2.0650 C.ar  110  TYR110      0.0417
     76  CZ        23.1250   33.2570    0.6740 C.ar  110  TYR110      0.1957
     77  OH        22.0390   33.8830    0.0460 O.3   110  TYR110     -0.2866
     78  N         33.7230   29.1300   -0.7240 N.3   114  ARG114     -0.1231
     79  CA        33.4010   29.8620   -1.9420 C.3   114  ARG114      0.1694
     80  C         33.3330   31.3800   -1.7310 C.2   114  ARG114      0.2591
     81  O         33.6720   32.1460   -2.6220 O.2   114  ARG114     -0.2718
     82  CB        32.0750   29.3580   -2.5120 C.3   114  ARG114      0.0321
     83  CG        31.5230   30.1640   -3.6650 C.3   114  ARG114      0.0489
     84  CD        32.5180   30.2510   -4.8070 C.3   114  ARG114      0.2205
     85  NE        31.9340   30.8740   -5.9820 N.pl3 114  ARG114     -0.0865
     86  CZ        31.9280   32.1750   -6.2440 C.cat 114  ARG114      0.5346
     87  NH1       32.4850   33.0300   -5.3980 N.pl3 114  ARG114      0.1354
     88  NH2       31.3650   32.6160   -7.3730 N.pl3 114  ARG114      0.1354
     89  N         32.8740   31.8190   -0.5690 N.am  115  VAL115     -0.1980
     90  CA        32.7650   33.2420   -0.2810 C.3   115  VAL115      0.1595
     91  C         34.1170   33.8020    0.1710 C.2   115  VAL115      0.2287
     92  O         34.4830   34.9000   -0.1960 O.2   115  VAL115     -0.2864
     93  CB        31.6390   33.4950    0.7580 C.3   115  VAL115      0.0276
     94  CG1       31.4910   34.9830    1.0770 C.3   115  VAL115      0.0022
     95  CG2       30.3190   32.9540    0.2220 C.3   115  VAL115      0.0022
     96  N         36.4790   34.4610   -2.7100 N.3   118  HIS118     -0.1226
     97  CA        36.0610   35.6890   -3.3760 C.3   118  HIS118      0.1752
     98  C         36.5970   36.9000   -2.6130 C.2   118  HIS118      0.2595
     99  O         37.3200   37.7250   -3.1790 O.2   118  HIS118     -0.2718
    100  CB        34.5430   35.7730   -3.4290 C.3   118  HIS118      0.0759
    101  CG        34.0390   37.0000   -4.1130 C.ar  118  HIS118      0.0818
    102  ND1       33.7280   37.0620   -5.4480 N.ar  118  HIS118     -0.2268
    103  CD2       33.8240   38.2490   -3.6320 C.ar  118  HIS118      0.1154
    104  CE1       33.3480   38.3120   -5.7360 C.ar  118  HIS118      0.1986
    105  NE2       33.3880   39.0800   -4.6680 N.ar  118  HIS118     -0.2212
    106  N         36.2310   36.9950   -1.3340 N.am  119  GLU119     -0.1979
    107  CA        36.6480   38.0950   -0.4710 C.3   119  GLU119      0.1602
    108  C         38.1410   38.3060   -0.4040 C.2   119  GLU119      0.2287
    109  O         38.6200   39.4400   -0.4880 O.2   119  GLU119     -0.2864
    110  CB        36.1230   37.9220    0.9500 C.3   119  GLU119      0.0415
    111  CG        34.6350   38.0320    1.1060 C.3   119  GLU119      0.1163
    112  CD        34.0630   39.2360    0.4310 C.2   119  GLU119      0.3649
    113  OE1       34.7910   40.1810    0.1310 O.co2 119  GLU119     -0.2457
    114  OE2       32.8550   39.2460    0.1710 O.co2 119  GLU119     -0.2457
    115  N         39.7230   40.2710   -2.9090 N.3   122  HIS122     -0.1241
    116  CA        39.5700   41.7000   -2.6980 C.3   122  HIS122      0.1621
    117  C         40.6920   42.1980   -1.8310 C.2   122  HIS122      0.2264
    118  O         41.2460   43.2660   -2.0750 O.2   122  HIS122     -0.2867
    119  CB        38.2650   41.9840   -1.9930 C.3   122  HIS122      0.0745
    120  CG        37.0910   42.0250   -2.9100 C.ar  122  HIS122      0.0817
    121  ND1       37.0980   42.6570   -4.1290 N.ar  122  HIS122     -0.2268
    122  CD2       35.8430   41.5180   -2.7680 C.ar  122  HIS122      0.1154
    123  CE1       35.8970   42.5220   -4.6700 C.ar  122  HIS122      0.1986
    124  NE2       35.0920   41.8360   -3.8860 N.ar  122  HIS122     -0.2212
    125  N         35.9110   43.4220   -9.3100 N.3   128  HIS128     -0.1241
    126  CA        34.9530   42.3800   -9.7050 C.3   128  HIS128      0.1621
    127  C         35.1020   42.0540  -11.1820 C.2   128  HIS128      0.2264
    128  O         35.7600   42.7570  -11.9330 O.2   128  HIS128     -0.2867
    129  CB        33.4990   42.8000   -9.4570 C.3   128  HIS128      0.0745
    130  CG        33.0940   42.7820   -8.0190 C.ar  128  HIS128      0.0817
    131  ND1       32.2050   43.6750   -7.4670 N.ar  128  HIS128     -0.2268
    132  CD2       33.4870   41.9760   -6.9980 C.ar  128  HIS128      0.1154
    133  CE1       32.0960   43.3990   -6.1620 C.ar  128  HIS128      0.1986
    134  NE2       32.8560   42.3730   -5.8290 N.ar  128  HIS128     -0.2212
    135  N         33.0190   37.4860   -9.6600 N.3   137  TYR137     -0.1228
    136  CA        31.7340   38.0080  -10.1300 C.3   137  TYR137      0.1721
    137  C         31.0730   38.6160   -8.8890 C.2   137  TYR137      0.2437
    138  O         31.3030   38.1550   -7.7720 O.2   137  TYR137     -0.2733
    139  CB        30.8990   36.8680  -10.7060 C.3   137  TYR137      0.0547
    140  CG        29.6000   37.2930  -11.3060 C.ar  137  TYR137     -0.0200
    141  CD1       29.5540   38.0210  -12.4950 C.ar  137  TYR137     -0.0009
    142  CD2       28.4040   36.9610  -10.6900 C.ar  137  TYR137     -0.0009
    143  CE1       28.3280   38.4120  -13.0610 C.ar  137  TYR137      0.0417
    144  CE2       27.1710   37.3440  -11.2380 C.ar  137  TYR137      0.0417
    145  CZ        27.1280   38.0700  -12.4230 C.ar  137  TYR137      0.1957
    146  OH        25.8930   38.4470  -12.9380 O.3   137  TYR137     -0.2866
    147  N         30.2610   39.6690   -9.0600 N.am  138  PRO138     -0.2718
    148  CA        29.6330   40.2760   -7.8880 C.3   138  PRO138      0.1535
    149  C         28.6260   39.5200   -6.9970 C.2   138  PRO138      0.2599
    150  O         28.3990   39.9570   -5.8550 O.2   138  PRO138     -0.2715
    151  CB        29.1180   41.6090   -8.4350 C.3   138  PRO138      0.0310
    152  CG        28.9210   41.3480   -9.8570 C.3   138  PRO138      0.0237
    153  CD        30.0870   40.5170  -10.2410 C.3   138  PRO138      0.0939
    154  N         28.0060   38.4290   -7.4690 N.am  139  SER139     -0.1936
    155  CA        27.0950   37.6680   -6.6040 C.3   139  SER139      0.2055
    156  C         27.4920   36.2040   -6.4690 C.2   139  SER139      0.2643
    157  O         28.2330   35.6690   -7.3040 O.2   139  SER139     -0.2714
    158  CB        25.6290   37.8240   -7.0080 C.3   139  SER139      0.2130
    159  OG        25.4430   37.6530   -8.3870 O.3   139  SER139     -0.2179
    160  N         27.0590   35.5960   -5.3630 N.am  140  TYR140     -0.1973
    161  CA        27.3590   34.2180   -5.0210 C.3   140  TYR140      0.1639
    162  C         26.8100   33.2170   -6.0200 C.2   140  TYR140      0.2290
    163  O         25.6670   33.3250   -6.4770 O.2   140  TYR140     -0.2864
    164  CB        26.8580   33.9180   -3.6010 C.3   140  TYR140      0.0560
    165  CG        26.9860   32.4610   -3.1700 C.ar  140  TYR140     -0.0198
    166  CD1       26.0380   31.5070   -3.5580 C.ar  140  TYR140     -0.0009
    167  CD2       28.0400   32.0360   -2.3720 C.ar  140  TYR140     -0.0009
    168  CE1       26.1450   30.1820   -3.1600 C.ar  140  TYR140      0.0417
    169  CE2       28.1450   30.7140   -1.9770 C.ar  140  TYR140      0.0417
    170  CZ        27.2010   29.7980   -2.3700 C.ar  140  TYR140      0.1957
    171  OH        27.2990   28.5020   -1.9620 O.3   140  TYR140     -0.2866
@<TRIPOS>BOND
     1   143   141   ar
     2   143   145   ar
     3   146   145    1
     4   141   140   ar
     5   145   144   ar
     6   128   127    2
     7   140   139    1
     8   140   142   ar
     9   144   142   ar
    10   127   126    1
    11   139   136    1
    12   153   152    1
    13   153   147    1
    14   136   135    1
    15   136   137    1
    16   152   151    1
    17   126   129    1
    18   126   125    1
    19   129   130    1
    20   147   137   am
    21   147   148    1
    22   137   138    2
    23   151   148    1
    24   159   158    1
    25   130   131   ar
    26   130   132   ar
    27   148   149    1
    28   154   149   am
    29   154   155    1
    30   131   133   ar
    31    88    86    1
    32   157   156    2
    33   158   155    1
    34   132   134   ar
    35   149   150    2
    36   155   156    1
    37   163   162    2
    38   156   160   am
    39    86    85    2
    40    86    87    1
    41   133   134   ar
    42   162   161    1
    43    85    84    1
    44   104   102   ar
    45   104   105   ar
    46   102   101   ar
    47   160   161    1
    48   161   164    1
    49    84    83    1
    50   123   121   ar
    51   123   124   ar
    52   105   103   ar
    53   121   120   ar
    54   101   103   ar
    55   101   100    1
    56   124   122   ar
    57    83    82    1
    58   164   165    1
    59   166   165   ar
    60   166   168   ar
    61   100    97    1
    62    97    96    1
    63    97    98    1
    64    99    98    2
    65   165   167   ar
    66   168   170   ar
    67   120   122   ar
    68   120   119    1
    69   115   116    1
    70   116   119    1
    71   116   117    1
    72    81    80    2
    73    98   106   am
    74    82    79    1
    75   167   169   ar
    76   170   169   ar
    77   170   171    1
    78   118   117    2
    79    79    80    1
    80    79    78    1
    81    80    89   am
    82   106   107    1
    83    89    90    1
    84   109   108    2
    85   107   108    1
    86   107   110    1
    87    90    91    1
    88    90    93    1
    89    92    91    2
    90    74    72   ar
    91    74    76   ar
    92    77    76    1
    93   113   112   ar
    94   114   112   ar
    95    95    93    1
    96   112   111    1
    97    33    32    1
    98    72    71   ar
    99    76    75   ar
   100    93    94    1
   101    18    17    2
   102   110   111    1
   103    53    52    2
   104    32    34    1
   105    32    31    1
   106    16    17    1
   107    16    15    1
   108    66    67    1
   109    17    19   am
   110    57    58    2
   111    57    56    1
   112    67    68    1
   113    67    70    1
   114    54    51    1
   115    19    20    1
   116    71    73   ar
   117    71    70    1
   118    75    73   ar
   119    25    24    2
   120    52    51    1
   121    52    55   am
   122    20    23    1
   123    20    21    1
   124    38    37    2
   125    50    51    1
   126    50    42   am
   127    31    28    1
   128    68    69    2
   129    56    55    1
   130    56    59    1
   131    27    21   am
   132    27    28    1
   133    41    44    1
   134    41    42    1
   135    41    40    1
   136    24    23    1
   137    24    26   am
   138    44    45    1
   139    37    40   am
   140    37    36    1
   141    21    22    2
   142    42    43    2
   143    28    29    1
   144    35    36    1
   145    35    29   am
   146    39    36    1
   147    59    60    1
   148    14    12   ar
   149    29    30    2
   150    45    46   ar
   151    45    47   ar
   152    61    60   ar
   153    61    63   ar
   154    46    48   ar
   155    60    62   ar
   156    12    13   ar
   157    12    11    1
   158     6     5    1
   159    47    49   ar
   160    63    65   ar
   161    62    64   ar
   162    11     8    1
   163    48    49   ar
   164     5     2    1
   165    65    64   ar
   166     2     3    1
   167     2     1    1
   168     8     7    1
   169     8     9    1
   170    10     9    2
   171     4     3    2
