@<TRIPOS>MOLECULE
tmp/1cgmB00.pdb
 115 108 0 0 0
SMALL
GASTEIGER

@<TRIPOS>ATOM
      1  N         42.1950    2.0500   39.7070 N.3    36  GLN36      -0.1245
      2  CA        40.6990    2.0110   39.6780 C.3    36  GLN36       0.1566
      3  C         40.1250    2.9250   40.7490 C.2    36  GLN36       0.2260
      4  O         39.1990    3.7240   40.5880 O.2    36  GLN36      -0.2867
      5  CB        40.1840    0.5830   39.9560 C.3    36  GLN36       0.0367
      6  CG        38.8870    0.0560   39.3650 C.3    36  GLN36       0.0905
      7  CD        39.1100   -0.4880   37.9710 C.2    36  GLN36       0.2608
      8  OE1       38.3340   -0.1590   37.0880 O.2    36  GLN36      -0.2717
      9  NE2       40.1260   -1.3000   37.6670 N.am   36  GLN36      -0.0878
     10  N         44.9530   14.2000   33.1760 N.3    86  SER86      -0.1217
     11  CA        44.0920   13.1570   32.5700 C.3    86  SER86       0.1889
     12  C         43.5660   12.0820   33.5000 C.2    86  SER86       0.2288
     13  O         42.3810   11.7580   33.4090 O.2    86  SER86      -0.2866
     14  CB        44.7910   12.3820   31.3960 C.3    86  SER86       0.2089
     15  OG        44.5560   12.8510   30.0640 O.3    86  SER86      -0.2183
     16  N         41.8370   10.8160   36.6750 N.3    88  ASP88      -0.1239
     17  CA        40.8580   11.5200   37.5180 C.3    88  ASP88       0.1674
     18  C         41.3670   12.0160   38.8530 C.2    88  ASP88       0.2266
     19  O         41.8600   11.2550   39.6850 O.2    88  ASP88      -0.2867
     20  CB        39.6420   10.6810   37.8970 C.3    88  ASP88       0.1410
     21  CG        38.7260   10.2460   36.7700 C.2    88  ASP88       0.3668
     22  OD1       38.6070   10.9340   35.7420 O.co2  88  ASP88      -0.2456
     23  OD2       38.1240    9.1860   36.9590 O.co2  88  ASP88      -0.2456
     24  N         31.9790    5.2950   31.5790 N.3   112  LYS112     -0.1231
     25  CA        33.0550    5.8750   30.7950 C.3   112  LYS112      0.1693
     26  C         33.9140    6.8790   31.5440 C.2   112  LYS112      0.2591
     27  O         35.1350    6.8240   31.3900 O.2   112  LYS112     -0.2718
     28  CB        32.4620    6.5230   29.5330 C.3   112  LYS112      0.0285
     29  CG        31.9120    5.5670   28.4490 C.3   112  LYS112      0.0035
     30  CD        32.8980    5.0650   27.3670 C.3   112  LYS112      0.0206
     31  CE        33.3010    6.0530   26.2400 C.3   112  LYS112      0.1093
     32  NZ        34.3730    5.5080   25.4120 N.3   112  LYS112     -0.1314
     33  N         33.3520    7.7290   32.4000 N.am  113  ARG113     -0.1980
     34  CA        34.1240    8.6930   33.1880 C.3   113  ARG113      0.1597
     35  C         35.2290    8.0790   34.0320 C.2   113  ARG113      0.2287
     36  O         36.3910    8.4190   33.7840 O.2   113  ARG113     -0.2864
     37  CB        33.2530    9.4840   34.1700 C.3   113  ARG113      0.0334
     38  CG        32.0090   10.1750   33.5920 C.3   113  ARG113      0.0492
     39  CD        32.3130   11.1910   32.4970 C.3   113  ARG113      0.2205
     40  NE        33.1390   12.2800   32.9890 N.pl3 113  ARG113     -0.0865
     41  CZ        34.0340   12.8920   32.2170 C.cat 113  ARG113      0.5346
     42  NH1       34.2310   12.5440   30.9370 N.pl3 113  ARG113      0.1354
     43  NH2       34.7240   13.8720   32.7950 N.pl3 113  ARG113      0.1354
     44  N         36.2220    4.5550   34.5490 N.3   115  ASP115     -0.1225
     45  CA        36.9620    3.4560   33.9690 C.3   115  ASP115      0.1805
     46  C         38.0470    3.9680   32.9910 C.2   115  ASP115      0.2598
     47  O         39.2290    3.5820   33.0550 O.2   115  ASP115     -0.2718
     48  CB        35.8930    2.5220   33.2850 C.3   115  ASP115      0.1424
     49  CG        34.6320    2.0610   34.0590 C.2   115  ASP115      0.3668
     50  OD1       34.1730    2.7010   35.0020 O.co2 115  ASP115     -0.2456
     51  OD2       34.0600    1.0440   33.6870 O.co2 115  ASP115     -0.2456
     52  N         37.6840    4.9250   32.1200 N.am  116  ASP116     -0.1960
     53  CA        38.6070    5.4220   31.1070 C.3   116  ASP116      0.1840
     54  C         39.6640    6.4150   31.5550 C.2   116  ASP116      0.2622
     55  O         40.5020    6.8770   30.7700 O.2   116  ASP116     -0.2715
     56  CB        37.7490    5.9480   29.9810 C.3   116  ASP116      0.1450
     57  CG        37.0380    4.7160   29.4550 C.2   116  ASP116      0.3671
     58  OD1       37.6830    3.8680   28.8690 O.co2 116  ASP116     -0.2456
     59  OD2       35.8530    4.5570   29.7010 O.co2 116  ASP116     -0.2456
     60  N         39.6470    6.6680   32.8720 N.am  117  ALA117     -0.1963
     61  CA        40.7710    7.3130   33.5240 C.3   117  ALA117      0.1728
     62  C         41.8960    6.2890   33.5800 C.2   117  ALA117      0.2617
     63  O         43.0250    6.5950   33.1910 O.2   117  ALA117     -0.2715
     64  CB        40.4790    7.6940   34.9530 C.3   117  ALA117      0.0334
     65  N         41.5570    5.0530   33.9880 N.am  118  SER118     -0.1936
     66  CA        42.5860    4.0600   34.2030 C.3   118  SER118      0.2055
     67  C         43.3550    3.6390   32.9610 C.2   118  SER118      0.2644
     68  O         44.5420    3.4010   33.1110 O.2   118  SER118     -0.2714
     69  CB        41.9850    2.8400   34.8760 C.3   118  SER118      0.2130
     70  OG        43.0080    2.0610   35.4730 O.3   118  SER118     -0.2179
     71  N         42.8540    3.5440   31.7280 N.am  119  THR119     -0.1936
     72  CA        43.7580    3.2250   30.6080 C.3   119  THR119      0.2028
     73  C         44.3290    4.4280   29.8290 C.2   119  THR119      0.2642
     74  O         45.2190    4.2590   28.9850 O.2   119  THR119     -0.2714
     75  CB        43.0020    2.2190   29.7060 C.3   119  THR119      0.1808
     76  OG1       43.2560    1.0160   30.4220 O.3   119  THR119     -0.2208
     77  CG2       43.4050    2.0630   28.2430 C.3   119  THR119      0.0379
     78  N         43.8480    5.6650   30.1280 N.am  120  ALA120     -0.1977
     79  CA        44.4490    6.9310   29.6650 C.3   120  ALA120      0.1597
     80  C         45.8070    7.0020   30.3690 C.2   120  ALA120      0.2287
     81  O         46.8140    7.3840   29.7570 O.2   120  ALA120     -0.2864
     82  CB        43.6350    8.1530   30.1050 C.3   120  ALA120      0.0319
     83  N         47.4500    4.1910   31.4840 N.3   122  ARG122     -0.1182
     84  CA        48.2120    3.1130   30.8490 C.3   122  ARG122      0.1910
     85  C         49.2270    3.4890   29.7610 C.2   122  ARG122      0.2634
     86  O         50.4240    3.5920   30.0390 O.2   122  ARG122     -0.2714
     87  CB        47.2150    2.0540   30.2580 C.2   122  ARG122      0.0007
     88  CG        47.8340    0.8530   29.4690 C.2   122  ARG122      0.0176
     89  CD        46.8940   -0.2320   28.8870 C.3   122  ARG122      0.2464
     90  NE        46.0380    0.2740   27.8220 N.pl3 122  ARG122     -0.0815
     91  CZ        45.9450   -0.2670   26.5970 C.cat 122  ARG122      0.5349
     92  NH1       46.6550   -1.3430   26.2280 N.pl3 122  ARG122      0.1354
     93  NH2       45.1130    0.3020   25.7160 N.pl3 122  ARG122      0.1354
     94  N         48.7920    3.7480   28.5250 N.am  123  ALA123     -0.1963
     95  CA        49.7210    3.9780   27.4340 C.3   123  ALA123      0.1728
     96  C         50.5210    5.2650   27.4880 C.2   123  ALA123      0.2616
     97  O         51.5250    5.3750   26.7750 O.2   123  ALA123     -0.2715
     98  CB        48.9840    3.9620   26.1160 C.3   123  ALA123      0.0334
     99  N         50.0970    6.2410   28.3240 N.am  124  GLU124     -0.1977
    100  CA        50.8660    7.4710   28.4150 C.3   124  GLU124      0.1602
    101  C         52.1190    7.2020   29.2160 C.2   124  GLU124      0.2287
    102  O         53.1810    7.6590   28.7790 O.2   124  GLU124     -0.2864
    103  CB        50.0190    8.6040   29.0210 C.3   124  GLU124      0.0415
    104  CG        48.8550    9.0210   28.0900 C.3   124  GLU124      0.1163
    105  CD        49.1090    9.4200   26.6220 C.2   124  GLU124      0.3649
    106  OE1       49.8480    8.7650   25.8710 O.co2 124  GLU124     -0.2457
    107  OE2       48.5070   10.4030   26.2070 O.co2 124  GLU124     -0.2457
    108  N         54.6090    5.4870   26.6280 N.3   127  ASN127     -0.1240
    109  CA        55.1260    6.3770   25.5990 C.3   127  ASN127      0.1653
    110  C         56.2250    7.2680   26.1920 C.2   127  ASN127      0.2266
    111  O         57.1860    7.6190   25.4910 O.2   127  ASN127     -0.2867
    112  CB        53.9570    7.1910   25.0050 C.3   127  ASN127      0.1155
    113  CG        53.5800    6.7780   23.5740 C.2   127  ASN127      0.2627
    114  OD1       54.3020    7.0560   22.6270 O.2   127  ASN127     -0.2716
    115  ND2       52.4610    6.1120   23.3270 N.am  127  ASN127     -0.0877
@<TRIPOS>BOND
     1   114   113    2
     2   115   113   am
     3   113   112    1
     4   112   109    1
     5    32    31    1
     6   111   110    2
     7   109   110    1
     8   109   108    1
     9    93    91    1
    10   106   105   ar
    11    98    95    1
    12   107   105   ar
    13    92    91    1
    14    31    30    1
    15    91    90    2
    16   105   104    1
    17    97    96    2
    18    30    29    1
    19    95    96    1
    20    95    94    1
    21    96    99   am
    22    90    89    1
    23   104   103    1
    24    77    75    1
    25    99   100    1
    26   100   103    1
    27   100   101    1
    28    29    28    1
    29    94    85   am
    30   102   101    2
    31    58    57   ar
    32    89    88    1
    33    74    73    2
    34    57    59   ar
    35    57    56    1
    36    88    87    2
    37    28    25    1
    38    79    82    1
    39    79    78    1
    40    79    80    1
    41    75    76    1
    42    75    72    1
    43    81    80    2
    44    85    86    2
    45    85    84    1
    46    73    78   am
    47    73    72    1
    48    56    53    1
    49    15    14    1
    50    87    84    1
    51    72    71    1
    52    55    54    2
    53    25    26    1
    54    25    24    1
    55    84    83    1
    56    42    41    1
    57    53    54    1
    58    53    52    1
    59    27    26    2
    60    14    11    1
    61    26    33   am
    62    54    60   am
    63    71    67   am
    64    52    46   am
    65    41    43    1
    66    41    40    2
    67    33    34    1
    68    39    40    1
    69    39    38    1
    70    11    10    1
    71    11    12    1
    72    60    61    1
    73    67    68    2
    74    67    66    1
    75    46    47    2
    76    46    45    1
    77    34    35    1
    78    34    37    1
    79    63    62    2
    80    48    45    1
    81    48    49    1
    82    13    12    2
    83    61    62    1
    84    61    64    1
    85    62    65   am
    86    38    37    1
    87    51    49   ar
    88    36    35    2
    89    45    44    1
    90    65    66    1
    91    49    50   ar
    92    66    69    1
    93    69    70    1
    94    22    21   ar
    95    16    17    1
    96    21    23   ar
    97    21    20    1
    98     8     7    2
    99    17    20    1
   100    17    18    1
   101     9     7   am
   102     7     6    1
   103    18    19    2
   104     6     5    1
   105     2     1    1
   106     2     5    1
   107     2     3    1
   108     4     3    2
