@<TRIPOS>MOLECULE
tmp/1cguA00.pdb
 195 190 0 0 0
SMALL
GASTEIGER

@<TRIPOS>ATOM
      1  N         63.7700   -1.3550   13.3300 N.3    47  LYS47      -0.1245
      2  CA        62.5030   -0.8180   13.7410 C.3    47  LYS47       0.1561
      3  C         61.9880   -1.4020   15.0800 C.2    47  LYS47       0.2260
      4  O         61.0240   -0.9200   15.7220 O.2    47  LYS47      -0.2867
      5  CB        61.5870   -1.0590   12.5840 C.3    47  LYS47       0.0271
      6  CG        61.7840    0.1910   11.7220 C.3    47  LYS47       0.0035
      7  CD        60.7310    0.3690   10.5960 C.3    47  LYS47       0.0206
      8  CE        60.6770    1.7320    9.8440 C.3    47  LYS47       0.1093
      9  NZ        60.3520    2.8570   10.6970 N.3    47  LYS47      -0.1314
     10  N         53.0110   -0.3260   10.0700 N.3    89  TYR89      -0.1241
     11  CA        52.7870    0.6510    8.9970 C.3    89  TYR89       0.1605
     12  C         53.2160   -0.0480    7.7630 C.2    89  TYR89       0.2264
     13  O         54.4010   -0.3640    7.6270 O.2    89  TYR89      -0.2867
     14  CB        53.6610    1.8690    8.9710 C.3    89  TYR89       0.0534
     15  CG        53.3510    2.8370   10.0470 C.ar   89  TYR89      -0.0201
     16  CD1       52.3430    3.7530    9.8590 C.ar   89  TYR89      -0.0009
     17  CD2       54.1060    2.7920   11.1770 C.ar   89  TYR89      -0.0009
     18  CE1       52.0740    4.6650   10.8350 C.ar   89  TYR89       0.0417
     19  CE2       53.8520    3.7020   12.1600 C.ar   89  TYR89       0.0417
     20  CZ        52.8440    4.6330   11.9850 C.ar   89  TYR89       0.1957
     21  OH        52.6210    5.5730   12.9830 O.3    89  TYR89      -0.2866
     22  N         56.5290   -1.4430   13.6420 N.3    94  ASN94      -0.1240
     23  CA        57.3480   -0.3610   14.1790 C.3    94  ASN94       0.1653
     24  C         57.1970   -0.3530   15.7010 C.2    94  ASN94       0.2266
     25  O         56.0590   -0.5170   16.1610 O.2    94  ASN94      -0.2867
     26  CB        56.9100    1.0060   13.6910 C.3    94  ASN94       0.1155
     27  CG        57.3130    1.3360   12.2570 C.2    94  ASN94       0.2627
     28  OD1       58.0180    2.3480   12.0520 O.2    94  ASN94      -0.2716
     29  ND2       56.9230    0.5680   11.2230 N.am   94  ASN94      -0.0877
     30  N         60.8330    2.4870   20.0760 N.3    97  TYR97      -0.1227
     31  CA        62.2380    2.4110   20.4980 C.3    97  TYR97       0.1736
     32  C         62.9920    3.7000   20.6940 C.2    97  TYR97       0.2595
     33  O         64.0160    3.7880   21.3350 O.2    97  TYR97      -0.2718
     34  CB        63.0860    1.5680   19.5180 C.3    97  TYR97       0.0548
     35  CG        63.4270    2.1660   18.1390 C.ar   97  TYR97      -0.0200
     36  CD1       64.5330    3.0010   17.9450 C.ar   97  TYR97      -0.0009
     37  CD2       62.6220    1.8870   17.0300 C.ar   97  TYR97      -0.0009
     38  CE1       64.8070    3.5430   16.6940 C.ar   97  TYR97       0.0417
     39  CE2       62.8950    2.4310   15.7790 C.ar   97  TYR97       0.0417
     40  CZ        63.9850    3.2570   15.6130 C.ar   97  TYR97       0.1957
     41  OH        64.2100    3.8590   14.3800 O.3    97  TYR97      -0.2866
     42  N         62.5300    4.7030   19.9750 N.am   98  HIS98      -0.1975
     43  CA        63.2260    5.9650   19.8310 C.3    98  HIS98       0.1656
     44  C         62.8940    7.0180   20.8640 C.2    98  HIS98       0.2291
     45  O         63.3420    8.1710   20.7660 O.2    98  HIS98      -0.2864
     46  CB        62.9140    6.4450   18.4090 C.3    98  HIS98       0.0771
     47  CG        61.4430    6.3350   18.0270 C.ar   98  HIS98       0.0820
     48  ND1       60.8950    5.5010   17.1360 N.ar   98  HIS98      -0.2267
     49  CD2       60.4240    7.0710   18.5870 C.ar   98  HIS98       0.1154
     50  CE1       59.6000    5.6990   17.1350 C.ar   98  HIS98       0.1986
     51  NE2       59.3320    6.6350   18.0260 N.ar   98  HIS98      -0.2212
     52  N         59.9720    8.6130   21.2800 N.3   100  TYR100     -0.1227
     53  CA        59.1430    9.7530   20.8780 C.3   100  TYR100      0.1736
     54  C         57.6110    9.5700   20.9050 C.2   100  TYR100      0.2595
     55  O         56.8430   10.5560   20.8470 O.2   100  TYR100     -0.2718
     56  CB        59.4700   10.2540   19.4600 C.3   100  TYR100      0.0548
     57  CG        60.8560   10.9060   19.3680 C.ar  100  TYR100     -0.0200
     58  CD1       61.2110   11.9630   20.2100 C.ar  100  TYR100     -0.0009
     59  CD2       61.7790   10.3820   18.4850 C.ar  100  TYR100     -0.0009
     60  CE1       62.4790   12.4630   20.1690 C.ar  100  TYR100      0.0417
     61  CE2       63.0560   10.9030   18.4440 C.ar  100  TYR100      0.0417
     62  CZ        63.4210   11.9380   19.2880 C.ar  100  TYR100      0.1957
     63  OH        64.7420   12.4300   19.2630 O.3   100  TYR100     -0.2866
     64  N         57.1310    8.3520   21.0490 N.am  101  TRP101     -0.1976
     65  CA        55.7130    8.1620   20.9820 C.3   101  TRP101      0.1640
     66  C         55.3120    8.0770   22.4190 C.2   101  TRP101      0.2290
     67  O         54.9280    7.0160   22.8890 O.2   101  TRP101     -0.2864
     68  CB        55.3420    6.8540   20.2120 C.3   101  TRP101      0.0576
     69  CG        55.6770    6.8820   18.7130 C.ar  101  TRP101      0.0006
     70  CD1       55.8620    8.0830   18.0690 C.ar  101  TRP101      0.0946
     71  CD2       55.8680    5.7890   17.9010 C.ar  101  TRP101      0.0152
     72  NE1       56.1800    7.7560   16.8560 N.ar  101  TRP101     -0.2442
     73  CE2       56.1970    6.4150   16.7080 C.ar  101  TRP101      0.0810
     74  CE3       55.8340    4.4080   17.9460 C.ar  101  TRP101      0.0012
     75  CZ2       56.4900    5.7140   15.5500 C.ar  101  TRP101      0.0191
     76  CZ3       56.1260    3.6820   16.8030 C.ar  101  TRP101      0.0001
     77  CH2       56.4510    4.3380   15.6180 C.ar  101  TRP101      0.0015
     78  N         59.4590   16.0360   24.0880 N.3   137  ALA137     -0.1245
     79  CA        58.5120   16.2870   23.0420 C.3   137  ALA137      0.1562
     80  C         57.1480   16.8640   23.4340 C.2   137  ALA137      0.2260
     81  O         56.1020   16.2550   23.2040 O.2   137  ALA137     -0.2867
     82  CB        58.4350   14.9530   22.3120 C.3   137  ALA137      0.0290
     83  N         53.2920   16.4610   21.0840 N.3   140  HIS140     -0.1241
     84  CA        52.4010   15.3380   20.8410 C.3   140  HIS140      0.1621
     85  C         52.6720   14.1440   21.7390 C.2   140  HIS140      0.2264
     86  O         53.7510   14.0420   22.3520 O.2   140  HIS140     -0.2867
     87  CB        52.5540   14.9180   19.3810 C.3   140  HIS140      0.0745
     88  CG        53.9570   14.4840   18.9750 C.ar  140  HIS140      0.0817
     89  ND1       54.7740   15.1560   18.1760 N.ar  140  HIS140     -0.2268
     90  CD2       54.5890   13.3120   19.3180 C.ar  140  HIS140      0.1154
     91  CE1       55.8680   14.4490   18.0210 C.ar  140  HIS140      0.1986
     92  NE2       55.7430   13.3490   18.7110 N.ar  140  HIS140     -0.2212
     93  N         51.5210   16.7570   13.2060 N.3   194  LEU194     -0.1231
     94  CA        52.8030   16.3460   12.6310 C.3   194  LEU194      0.1693
     95  C         52.6530   14.9250   12.1020 C.2   194  LEU194      0.2592
     96  O         52.5590   14.0110   12.9010 O.2   194  LEU194     -0.2718
     97  CB        53.8990   16.3210   13.6790 C.3   194  LEU194      0.0284
     98  CG        55.1170   17.1730   13.4400 C.3   194  LEU194      0.0019
     99  CD1       56.1510   16.5950   14.3890 C.3   194  LEU194      0.0001
    100  CD2       55.6300   17.1620   11.9990 C.3   194  LEU194      0.0001
    101  N         52.5820   14.6550   10.8140 N.am  195  TYR195     -0.1962
    102  CA        52.3650   13.3350   10.2190 C.3   195  TYR195      0.1771
    103  C         51.1040   12.6350   10.7480 C.2   195  TYR195      0.2620
    104  O         49.9650   12.9970   10.3460 O.2   195  TYR195     -0.2715
    105  CB        53.5550   12.3480   10.4190 C.3   195  TYR195      0.0574
    106  CG        54.9220   12.9230   10.1290 C.ar  195  TYR195     -0.0198
    107  CD1       55.2480   13.4870    8.9050 C.ar  195  TYR195     -0.0009
    108  CD2       55.8280   12.9080   11.1610 C.ar  195  TYR195     -0.0009
    109  CE1       56.4900   14.0620    8.7090 C.ar  195  TYR195      0.0417
    110  CE2       57.0690   13.4780   10.9850 C.ar  195  TYR195      0.0417
    111  CZ        57.4080   14.0600    9.7650 C.ar  195  TYR195      0.1957
    112  OH        58.6630   14.6790    9.6560 O.3   195  TYR195     -0.2866
    113  N         51.2300   11.6480   11.6530 N.am  196  ASP196     -0.1957
    114  CA        50.0450   10.9400   12.1050 C.3   196  ASP196      0.1840
    115  C         49.8980   10.9180   13.6020 C.2   196  ASP196      0.2621
    116  O         49.0850   10.1700   14.1570 O.2   196  ASP196     -0.2715
    117  CB        50.0860    9.5350   11.5330 C.3   196  ASP196      0.1450
    118  CG        51.0370    8.4900   12.0930 C.2   196  ASP196      0.3671
    119  OD1       52.0280    8.7730   12.7960 O.co2 196  ASP196     -0.2456
    120  OD2       50.7260    7.3380   11.8140 O.co2 196  ASP196     -0.2456
    121  N         50.7710   11.7510   14.1760 N.am  197  LEU197     -0.1977
    122  CA        50.9580   11.9330   15.5870 C.3   197  LEU197      0.1596
    123  C         49.9260   12.8670   16.2190 C.2   197  LEU197      0.2287
    124  O         49.8900   14.0600   15.8300 O.2   197  LEU197     -0.2864
    125  CB        52.3400   12.4880   15.7790 C.3   197  LEU197      0.0297
    126  CG        53.4920   11.6220   15.4720 C.3   197  LEU197      0.0022
    127  CD1       54.6740   12.5090   15.1290 C.3   197  LEU197      0.0001
    128  CD2       53.7710   10.7300   16.6830 C.3   197  LEU197      0.0001
    129  N         66.8220   19.1150   25.2860 N.3   227  ARG227     -0.1245
    130  CA        66.6960   19.1770   23.8350 C.3   227  ARG227      0.1563
    131  C         65.2190   18.9590   23.4440 C.2   227  ARG227      0.2260
    132  O         64.6650   17.8180   23.3960 O.2   227  ARG227     -0.2867
    133  CB        67.4800   18.0830   23.1160 C.3   227  ARG227      0.0307
    134  CG        67.6930   18.2450   21.6300 C.3   227  ARG227      0.0489
    135  CD        66.5930   18.3320   20.6190 C.3   227  ARG227      0.2205
    136  NE        65.7010   17.2040   20.5360 N.pl3 227  ARG227     -0.0865
    137  CZ        65.2790   16.6700   19.3620 C.cat 227  ARG227      0.5346
    138  NH1       65.6960   17.1140   18.1620 N.pl3 227  ARG227      0.1354
    139  NH2       64.4280   15.6210   19.3900 N.pl3 227  ARG227      0.1354
    140  N         61.9100   18.7810   20.9770 N.3   229  ALA229     -0.1231
    141  CA        61.5800   18.3720   19.6010 C.3   229  ALA229      0.1694
    142  C         60.4800   19.1910   18.9180 C.2   229  ALA229      0.2591
    143  O         59.6200   19.8250   19.5540 O.2   229  ALA229     -0.2718
    144  CB        61.1640   16.9070   19.5400 C.3   229  ALA229      0.0304
    145  N         60.5820   19.2070   17.5810 N.am  230  ALA230     -0.1980
    146  CA        59.6410   19.8310   16.7050 C.3   230  ALA230      0.1597
    147  C         59.1600   21.2260   17.0420 C.2   230  ALA230      0.2287
    148  O         57.9860   21.5310   16.8280 O.2   230  ALA230     -0.2864
    149  CB        58.4650   18.8380   16.6030 C.3   230  ALA230      0.0319
    150  N         64.8360   21.8580   18.0950 N.3   257  GLU257     -0.1245
    151  CA        65.0270   21.7160   16.6530 C.3   257  GLU257      0.1567
    152  C         63.8650   22.1370   15.7890 C.2   257  GLU257      0.2260
    153  O         62.6870   21.7230   15.9060 O.2   257  GLU257     -0.2867
    154  CB        65.3470   20.2980   16.1380 C.3   257  GLU257      0.0388
    155  CG        64.3450   19.2410   16.5620 C.3   257  GLU257      0.1160
    156  CD        63.8780   18.2500   15.5090 C.2   257  GLU257      0.3649
    157  OE1       64.6120   17.9290   14.5760 O.co2 257  GLU257     -0.2457
    158  OE2       62.7410   17.7860   15.6230 O.co2 257  GLU257     -0.2457
    159  N         70.5580   11.6260   13.8000 N.3   327  HIS327     -0.1226
    160  CA        69.5580   10.5880   13.6620 C.3   327  HIS327      0.1752
    161  C         68.5000   10.8990   12.6070 C.2   327  HIS327      0.2596
    162  O         67.6010   10.0650   12.4250 O.2   327  HIS327     -0.2718
    163  CB        68.9100   10.3390   15.0580 C.3   327  HIS327      0.0759
    164  CG        68.1580   11.5230   15.6860 C.ar  327  HIS327      0.0818
    165  ND1       68.6700   12.5980   16.2960 N.ar  327  HIS327     -0.2268
    166  CD2       66.7920   11.7120   15.6050 C.ar  327  HIS327      0.1154
    167  CE1       67.6740   13.4350   16.5550 C.ar  327  HIS327      0.1986
    168  NE2       66.5600   12.8930   16.1430 N.ar  327  HIS327     -0.2212
    169  N         68.5210   12.0460   11.9130 N.am  328  ASP328     -0.1974
    170  CA        67.5310   12.2310   10.8530 C.3   328  ASP328      0.1709
    171  C         68.1710   12.5740    9.5180 C.2   328  ASP328      0.2293
    172  O         67.5040   13.0170    8.5790 O.2   328  ASP328     -0.2864
    173  CB        66.4850   13.3390   11.2410 C.3   328  ASP328      0.1436
    174  CG        65.5690   12.9970   12.4390 C.2   328  ASP328      0.3671
    175  OD1       65.1280   11.8310   12.6270 O.co2 328  ASP328     -0.2456
    176  OD2       65.3060   13.9440   13.2020 O.co2 328  ASP328     -0.2456
    177  N         66.5200    6.5570    7.6110 N.3   371  ASP371     -0.1239
    178  CA        65.9890    6.0740    8.8660 C.3   371  ASP371      0.1674
    179  C         65.1690    4.8190    8.5800 C.2   371  ASP371      0.2266
    180  O         64.1870    4.8910    7.8150 O.2   371  ASP371     -0.2867
    181  CB        65.1340    7.1780    9.4860 C.3   371  ASP371      0.1410
    182  CG        64.0430    6.7820   10.5080 C.2   371  ASP371      0.3668
    183  OD1       64.1990    5.8390   11.2950 O.co2 371  ASP371     -0.2456
    184  OD2       63.0120    7.4670   10.5150 O.co2 371  ASP371     -0.2456
    185  N         70.3060    4.6860   12.3570 N.3   375  ARG375     -0.1245
    186  CA        70.2710    4.3040   13.7830 C.3   375  ARG375      0.1563
    187  C         70.7150    2.8650   14.1590 C.2   375  ARG375      0.2260
    188  O         69.9110    2.1100   14.7470 O.2   375  ARG375     -0.2867
    189  CB        68.8580    4.4930   14.3300 C.3   375  ARG375      0.0307
    190  CG        68.4340    5.9330   14.4910 C.3   375  ARG375      0.0489
    191  CD        67.4350    6.3520   13.4720 C.3   375  ARG375      0.2205
    192  NE        66.1530    6.4970   14.0970 N.pl3 375  ARG375     -0.0865
    193  CZ        65.3730    7.5490   13.8490 C.cat 375  ARG375      0.5346
    194  NH1       65.7450    8.4930   13.0040 N.pl3 375  ARG375      0.1354
    195  NH2       64.2050    7.6250   14.4650 N.pl3 375  ARG375      0.1354
@<TRIPOS>BOND
     1   177   178    1
     2    13    12    2
     3    12    11    1
     4   180   179    2
     5   172   171    2
     6   179   178    1
     7   109   107   ar
     8   109   111   ar
     9   178   181    1
    10   107   106   ar
    11    14    11    1
    12    14    15    1
    13    11    10    1
    14   181   182    1
    15   171   170    1
    16   112   111    1
    17   111   110   ar
    18     8     7    1
    19     8     9    1
    20    16    15   ar
    21    16    18   ar
    22    15    17   ar
    23   106   105    1
    24   106   108   ar
    25   102   105    1
    26   102   103    1
    27   102   101    1
    28   104   103    2
    29   182   184   ar
    30   182   183   ar
    31     7     6    1
    32   103   113   am
    33   101    95   am
    34    18    20   ar
    35   170   173    1
    36   170   169    1
    37   110   108   ar
    38    17    19   ar
    39    29    27   am
    40   173   174    1
    41   117   118    1
    42   117   114    1
    43   113   114    1
    44     6     5    1
    45   120   118   ar
    46   169   161   am
    47    20    19   ar
    48    20    21    1
    49   100    98    1
    50    28    27    2
    51   118   119   ar
    52    95    94    1
    53    95    96    2
    54   114   115    1
    55    27    26    1
    56   185   186    1
    57   162   161    2
    58   174   175   ar
    59   174   176   ar
    60     5     2    1
    61   161   160    1
    62    94    93    1
    63    94    97    1
    64   194   193    1
    65     1     2    1
    66    98    97    1
    67    98    99    1
    68   191   192    1
    69   191   190    1
    70   115   116    2
    71   115   121   am
    72    22    23    1
    73   160   159    1
    74   160   163    1
    75    26    23    1
    76     2     3    1
    77   186   187    1
    78   186   189    1
    79   193   192    2
    80   193   195    1
    81   187   188    2
    82   121   122    1
    83    23    24    1
    84   189   190    1
    85    41    40    1
    86   157   156   ar
    87   163   164    1
    88     3     4    2
    89   127   126    1
    90   126   125    1
    91   126   128    1
    92   156   158   ar
    93   156   155    1
    94    75    77   ar
    95    75    73   ar
    96   122   125    1
    97   122   123    1
    98   166   164   ar
    99   166   168   ar
   100    40    39   ar
   101    40    38   ar
   102    77    76   ar
   103   164   165   ar
   104    24    25    2
   105    39    37   ar
   106   152   153    2
   107   152   151    1
   108   124   123    2
   109   154   155    1
   110   154   151    1
   111   168   167   ar
   112   165   167   ar
   113   149   146    1
   114   151   150    1
   115    38    36   ar
   116   146   147    1
   117   146   145    1
   118    73    72   ar
   119    73    71   ar
   120    76    74   ar
   121   148   147    2
   122    72    70   ar
   123    37    35   ar
   124    50    48   ar
   125    50    51   ar
   126    48    47   ar
   127   145   142   am
   128    71    74   ar
   129    71    69   ar
   130    36    35   ar
   131    91    89   ar
   132    91    92   ar
   133    51    49   ar
   134    47    46    1
   135    47    49   ar
   136    70    69   ar
   137    35    34    1
   138   138   137    1
   139    89    88   ar
   140    46    43    1
   141    61    59   ar
   142    61    62   ar
   143    59    57   ar
   144    92    90   ar
   145    69    68    1
   146   142   143    2
   147   142   141    1
   148    88    90   ar
   149    88    87    1
   150    63    62    1
   151    62    60   ar
   152   137   139    1
   153   137   136    2
   154    57    56    1
   155    57    58   ar
   156    87    84    1
   157    56    53    1
   158    34    31    1
   159   144   141    1
   160   141   140    1
   161    43    42    1
   162    43    44    1
   163    42    32   am
   164    30    31    1
   165    60    58   ar
   166    68    65    1
   167    31    32    1
   168   136   135    1
   169   135   134    1
   170    32    33    2
   171    45    44    2
   172    84    83    1
   173    84    85    1
   174    55    54    2
   175    53    54    1
   176    53    52    1
   177    54    64   am
   178    65    64    1
   179    65    66    1
   180   134   133    1
   181    85    86    2
   182    82    79    1
   183    66    67    2
   184    79    80    1
   185    79    78    1
   186   133   130    1
   187    81    80    2
   188   132   131    2
   189   131   130    1
   190   130   129    1
