@<TRIPOS>MOLECULE
tmp/1cgzA00.pdb
 150 144 0 0 0
SMALL
GASTEIGER

@<TRIPOS>ATOM
      1  N         26.6770   49.7740   57.2420 N.3   130  THR130     -0.1203
      2  CA        25.4110   49.4310   57.8790 C.3   130  THR130      0.1994
      3  C         25.2570   47.9150   57.7700 C.2   130  THR130      0.2618
      4  O         24.2170   47.3930   58.1440 O.2   130  THR130     -0.2717
      5  CB        24.2440   50.1140   57.1140 C.3   130  THR130      0.1784
      6  OG1       24.6260   51.4820   56.8260 O.3   130  THR130     -0.2211
      7  CG2       22.9530   50.0930   57.8920 C.3   130  THR130      0.0376
      8  N         26.2430   47.1970   57.2150 N.am  131  SER131     -0.1951
      9  CA        26.0530   45.7690   57.0480 C.3   131  SER131      0.1924
     10  C         27.0980   44.9010   57.7620 C.2   131  SER131      0.2314
     11  O         28.2390   44.7280   57.3120 O.2   131  SER131     -0.2863
     12  CB        26.2200   45.1390   55.6680 C.3   131  SER131      0.2116
     13  OG        27.3880   45.7710   55.1650 O.3   131  SER131     -0.2180
     14  N         23.5010   53.5430   59.0060 N.3   161  GLY161     -0.1210
     15  CA        22.3470   53.8840   58.1620 C.3   161  GLY161      0.1956
     16  C         22.7030   54.9310   57.1130 C.2   161  GLY161      0.2612
     17  O         23.8490   55.3700   56.9230 O.2   161  GLY161     -0.2717
     18  N         21.6830   55.3220   56.3350 N.am  162  CYS162     -0.1970
     19  CA        21.9570   56.1030   55.1440 C.3   162  CYS162      0.1712
     20  C         22.5150   57.5010   55.2940 C.2   162  CYS162      0.2296
     21  O         22.9850   58.0250   54.2650 O.2   162  CYS162     -0.2864
     22  CB        20.7240   56.2510   54.2430 C.3   162  CYS162      0.0983
     23  SG        19.9790   54.6680   53.8340 S.3   162  CYS162     -0.0798
     24  N         29.0070   49.0850   51.6760 N.3   190  GLU190     -0.1231
     25  CA        27.6800   48.6250   52.0430 C.3   190  GLU190      0.1699
     26  C         27.2790   47.4390   51.1870 C.2   190  GLU190      0.2592
     27  O         27.4320   47.4960   49.9680 O.2   190  GLU190     -0.2718
     28  CB        26.6890   49.7880   51.7510 C.3   190  GLU190      0.0402
     29  CG        26.8650   50.9800   52.6620 C.3   190  GLU190      0.1161
     30  CD        26.5870   50.8250   54.1340 C.2   190  GLU190      0.3649
     31  OE1       26.3520   49.7060   54.6380 O.co2 190  GLU190     -0.2457
     32  OE2       26.4620   51.9110   54.7730 O.co2 190  GLU190     -0.2457
     33  N         26.7600   46.3930   51.8460 N.am  191  VAL191     -0.1966
     34  CA        26.4430   45.1480   51.0970 C.3   191  VAL191      0.1727
     35  C         25.0840   44.6750   51.5770 C.2   191  VAL191      0.2616
     36  O         24.9340   44.4140   52.7760 O.2   191  VAL191     -0.2715
     37  CB        27.4970   44.0840   51.4130 C.3   191  VAL191      0.0290
     38  CG1       27.1010   42.7380   50.7590 C.3   191  VAL191      0.0023
     39  CG2       28.8930   44.4860   50.9540 C.3   191  VAL191      0.0023
     40  N         24.1460   44.4870   50.6580 N.am  192  THR192     -0.1951
     41  CA        22.7850   44.1490   50.9590 C.3   192  THR192      0.1897
     42  C         22.5680   42.6930   51.3460 C.2   192  THR192      0.2313
     43  O         21.4180   42.3560   51.6860 O.2   192  THR192     -0.2863
     44  CB        21.8180   44.4590   49.7820 C.3   192  THR192      0.1794
     45  OG1       22.2500   43.8340   48.5850 O.3   192  THR192     -0.2208
     46  CG2       21.6860   45.9690   49.5740 C.3   192  THR192      0.0378
     47  N         22.8730   41.6390   54.1330 N.3   194  VAL194     -0.1231
     48  CA        22.2470   41.6740   55.4510 C.3   194  VAL194      0.1692
     49  C         20.7910   42.0930   55.4150 C.2   194  VAL194      0.2592
     50  O         20.0710   41.7790   56.3670 O.2   194  VAL194     -0.2718
     51  CB        23.1050   42.5350   56.4110 C.3   194  VAL194      0.0266
     52  CG1       22.9750   44.0270   56.0840 C.3   194  VAL194      0.0020
     53  CG2       22.7590   42.2160   57.8460 C.3   194  VAL194      0.0020
     54  N         20.3570   42.7910   54.3680 N.am  195  THR195     -0.1953
     55  CA        18.9960   43.2770   54.2960 C.3   195  THR195      0.1897
     56  C         18.0770   42.4750   53.3900 C.2   195  THR195      0.2313
     57  O         16.8530   42.6000   53.4950 O.2   195  THR195     -0.2863
     58  CB        18.9500   44.7430   53.7710 C.3   195  THR195      0.1794
     59  OG1       19.6040   44.8040   52.4990 O.3   195  THR195     -0.2208
     60  CG2       19.6350   45.7420   54.7020 C.3   195  THR195      0.0378
     61  N         17.6480   49.1810   47.6200 N.3   213  PHE213     -0.1227
     62  CA        19.0340   49.0210   48.0940 C.3   213  PHE213      0.1736
     63  C         19.9700   48.2820   47.1670 C.2   213  PHE213      0.2596
     64  O         19.6660   47.1890   46.6790 O.2   213  PHE213     -0.2718
     65  CB        18.9630   48.3310   49.4790 C.3   213  PHE213      0.0547
     66  CG        18.2520   49.1080   50.5620 C.ar  213  PHE213     -0.0202
     67  CD1       18.0390   50.4510   50.4070 C.ar  213  PHE213     -0.0042
     68  CD2       17.7600   48.4900   51.7090 C.ar  213  PHE213     -0.0042
     69  CE1       17.3850   51.2040   51.3450 C.ar  213  PHE213     -0.0003
     70  CE2       17.0870   49.2500   52.6880 C.ar  213  PHE213     -0.0003
     71  CZ        16.9080   50.6090   52.4860 C.ar  213  PHE213     -0.0000
     72  N         21.1840   48.8360   47.0620 N.am  214  GLY214     -0.1957
     73  CA        22.2220   48.2920   46.1930 C.3   214  GLY214      0.1869
     74  C         23.5600   48.2420   46.9010 C.2   214  GLY214      0.2309
     75  O         23.7460   48.7900   47.9820 O.2   214  GLY214     -0.2863
     76  N         11.9810   55.7710   60.2760 N.3   252  ILE252     -0.1231
     77  CA        12.7720   54.6970   59.6900 C.3   252  ILE252      0.1692
     78  C         13.4170   53.9110   60.8410 C.2   252  ILE252      0.2592
     79  O         14.1440   54.5190   61.6470 O.2   252  ILE252     -0.2718
     80  CB        13.9220   55.2390   58.8390 C.3   252  ILE252      0.0266
     81  CG1       13.4950   56.1840   57.7240 C.3   252  ILE252      0.0019
     82  CG2       14.7080   54.0590   58.2350 C.3   252  ILE252      0.0020
     83  CD1       14.6420   56.9700   57.1030 C.3   252  ILE252      0.0001
     84  N         13.1670   52.6140   60.9100 N.am  253  ASP253     -0.1960
     85  CA        13.7850   51.8230   61.9850 C.3   253  ASP253      0.1840
     86  C         14.5020   50.6400   61.3260 C.2   253  ASP253      0.2622
     87  O         14.2540   50.3080   60.1610 O.2   253  ASP253     -0.2715
     88  CB        12.7610   51.3610   63.0030 C.3   253  ASP253      0.1450
     89  CG        12.1420   52.4210   63.8870 C.2   253  ASP253      0.3671
     90  OD1       12.7370   53.5030   64.0940 O.co2 253  ASP253     -0.2456
     91  OD2       11.0120   52.1730   64.3880 O.co2 253  ASP253     -0.2456
     92  N         15.4310   50.0520   62.0670 N.am  254  GLY254     -0.1954
     93  CA        16.1330   48.8900   61.4950 C.3   254  GLY254      0.1869
     94  C         16.7490   48.1240   62.6550 C.2   254  GLY254      0.2309
     95  O         17.3260   48.7890   63.5300 O.2   254  GLY254     -0.2863
     96  N         19.1300   42.0710   59.0740 N.3   261  LEU261     -0.1231
     97  CA        18.7780   43.4700   59.3460 C.3   261  LEU261      0.1693
     98  C         17.4360   43.7620   58.6800 C.2   261  LEU261      0.2593
     99  O         17.2890   43.6600   57.4550 O.2   261  LEU261     -0.2718
    100  CB        19.8270   44.3860   58.7310 C.3   261  LEU261      0.0284
    101  CG        19.5930   45.9030   58.8890 C.3   261  LEU261      0.0019
    102  CD1       19.6350   46.3340   60.3480 C.3   261  LEU261      0.0001
    103  CD2       20.7300   46.5920   58.1160 C.3   261  LEU261      0.0001
    104  N         16.4750   44.1510   59.5160 N.am  262  THR262     -0.1939
    105  CA        15.1640   44.5010   59.0400 C.3   262  THR262      0.2028
    106  C         15.1590   46.0010   58.6930 C.2   262  THR262      0.2642
    107  O         16.0670   46.8240   58.9600 O.2   262  THR262     -0.2714
    108  CB        14.0970   44.1910   60.1250 C.3   262  THR262      0.1808
    109  OG1       14.3870   45.0220   61.2790 O.3   262  THR262     -0.2208
    110  CG2       14.1340   42.7100   60.4550 C.3   262  THR262      0.0379
    111  N         14.0510   46.3490   58.0380 N.am  263  PHE263     -0.1973
    112  CA        13.8680   47.7240   57.5610 C.3   263  PHE263      0.1639
    113  C         12.3880   48.0730   57.6170 C.2   263  PHE263      0.2290
    114  O         11.5820   47.2710   57.1080 O.2   263  PHE263     -0.2864
    115  CB        14.3990   47.7830   56.1280 C.3   263  PHE263      0.0560
    116  CG        14.0980   49.0750   55.4340 C.ar  263  PHE263     -0.0200
    117  CD1       14.7280   50.2390   55.8080 C.ar  263  PHE263     -0.0042
    118  CD2       13.1390   49.1140   54.4230 C.ar  263  PHE263     -0.0042
    119  CE1       14.4600   51.4490   55.2000 C.ar  263  PHE263     -0.0003
    120  CE2       12.8340   50.3080   53.8020 C.ar  263  PHE263     -0.0003
    121  CZ        13.4900   51.4670   54.2010 C.ar  263  PHE263     -0.0000
    122  N         20.2260   52.8210   45.8220 N.3   334  ASN334     -0.1225
    123  CA        20.5640   53.4100   47.1130 C.3   334  ASN334      0.1785
    124  C         21.6210   52.5450   47.8120 C.2   334  ASN334      0.2597
    125  O         21.2720   51.4550   48.2790 O.2   334  ASN334     -0.2718
    126  CB        19.2760   53.4670   47.9430 C.3   334  ASN334      0.1169
    127  CG        19.4240   53.9070   49.3850 C.2   334  ASN334      0.2627
    128  OD1       20.5260   54.0770   49.8950 O.2   334  ASN334     -0.2716
    129  ND2       18.2770   54.0650   50.0590 N.am  334  ASN334     -0.0877
    130  N         22.8620   53.0290   47.8650 N.am  335  MET335     -0.1965
    131  CA        23.9410   52.2650   48.5380 C.3   335  MET335      0.1736
    132  C         24.1860   52.7600   49.9540 C.2   335  MET335      0.2617
    133  O         25.3280   52.7940   50.4240 O.2   335  MET335     -0.2715
    134  CB        25.2330   52.3540   47.6900 C.3   335  MET335      0.0427
    135  CG        25.0990   51.7200   46.2930 C.3   335  MET335      0.0599
    136  SD        26.5470   52.0430   45.2550 S.3   335  MET335     -0.1393
    137  CE        26.3510   53.7710   44.8340 C.3   335  MET335      0.0692
    138  N         23.1300   53.2040   50.6430 N.am  336  SER336     -0.1950
    139  CA        23.2450   53.7370   51.9970 C.3   336  SER336      0.1924
    140  C         24.3970   54.7180   52.0970 C.2   336  SER336      0.2314
    141  O         24.4970   55.6310   51.2550 O.2   336  SER336     -0.2863
    142  CB        23.3610   52.5510   52.9790 C.3   336  SER336      0.2116
    143  OG        23.3580   53.0090   54.3260 O.3   336  SER336     -0.2180
    144  N         17.8710   57.0540   59.5220 N.3   373  PRO373     -0.2116
    145  CA        17.1540   56.8410   60.7700 C.3   373  PRO373      0.1372
    146  C         17.2760   57.9790   61.7640 C.2   373  PRO373      0.2244
    147  O         18.3650   58.5090   62.0050 O.2   373  PRO373     -0.2868
    148  CB        17.8160   55.5690   61.3330 C.3   373  PRO373      0.0268
    149  CG        18.2230   54.8070   60.0970 C.3   373  PRO373      0.0207
    150  CD        18.7040   55.8770   59.1200 C.3   373  PRO373      0.0892
@<TRIPOS>BOND
     1   137   136    1
     2   136   135    1
     3   122   123    1
     4    73    74    1
     5    73    72    1
     6   135   134    1
     7    64    63    2
     8    74    75    2
     9    72    63   am
    10   123   124    1
    11   123   126    1
    12    63    62    1
    13    61    62    1
    14   134   131    1
    15   124   130   am
    16   124   125    2
    17   130   131    1
    18   126   127    1
    19    62    65    1
    20   131   132    1
    21    45    44    1
    22   127   128    2
    23   127   129   am
    24    65    66    1
    25    46    44    1
    26    44    41    1
    27   132   133    2
    28   132   138   am
    29    27    26    2
    30    67    66   ar
    31    67    69   ar
    32    66    68   ar
    33   138   139    1
    34    40    41    1
    35    40    35   am
    36    38    37    1
    37    39    37    1
    38    41    42    1
    39    34    37    1
    40    34    35    1
    41    34    33    1
    42    26    33   am
    43    26    25    1
    44   141   140    2
    45    69    71   ar
    46    42    43    2
    47    35    36    2
    48    24    25    1
    49    68    70   ar
    50    28    25    1
    51    28    29    1
    52   139   140    1
    53   139   142    1
    54    71    70   ar
    55    59    58    1
    56    29    30    1
    57   142   143    1
    58    56    57    2
    59    56    55    1
    60    58    55    1
    61    58    60    1
    62   120   121   ar
    63   120   118   ar
    64    23    22    1
    65    47    48    1
    66    30    31   ar
    67    30    32   ar
    68   121   119   ar
    69    22    19    1
    70    21    20    2
    71    55    54    1
    72    54    49   am
    73   118   116   ar
    74    19    20    1
    75    19    18    1
    76    13    12    1
    77   119   117   ar
    78    49    48    1
    79    49    50    2
    80   116   117   ar
    81   116   115    1
    82    48    51    1
    83    12     9    1
    84    52    51    1
    85   115   112    1
    86    18    16   am
    87    51    53    1
    88     6     5    1
    89    17    16    2
    90     9     8    1
    91     9    10    1
    92    83    81    1
    93   114   113    2
    94    16    15    1
    95     5     2    1
    96     5     7    1
    97     8     3   am
    98     1     2    1
    99    11    10    2
   100    99    98    2
   101   112   113    1
   102   112   111    1
   103    81    80    1
   104     3     2    1
   105     3     4    2
   106   111   106   am
   107   103   101    1
   108    15    14    1
   109    82    80    1
   110    98    97    1
   111    98   104   am
   112   106   107    2
   113   106   105    1
   114   100   101    1
   115   100    97    1
   116    80    77    1
   117   101   102    1
   118   105   104    1
   119   105   108    1
   120    96    97    1
   121   150   144    1
   122   150   149    1
   123   144   145    1
   124    77    76    1
   125    77    78    1
   126   149   148    1
   127   108   110    1
   128   108   109    1
   129    87    86    2
   130   145   148    1
   131   145   146    1
   132    78    84   am
   133    78    79    2
   134    84    85    1
   135    86    85    1
   136    86    92   am
   137    93    92    1
   138    93    94    1
   139   146   147    2
   140    85    88    1
   141    94    95    2
   142    88    89    1
   143    89    90   ar
   144    89    91   ar
