@<TRIPOS>MOLECULE
tmp/1ch8A00.pdb
 176 166 0 0 0
SMALL
GASTEIGER

@<TRIPOS>ATOM
      1  N         -5.2570   48.5270   49.1860 N.3    13  ASP13      -0.1239
      2  CA        -3.9900   48.9610   48.5820 C.3    13  ASP13       0.1674
      3  C         -2.7790   48.2160   49.0800 C.2    13  ASP13       0.2266
      4  O         -1.6710   48.7810   49.1310 O.2    13  ASP13      -0.2867
      5  CB        -3.7230   50.4590   48.7780 C.3    13  ASP13       0.1410
      6  CG        -4.9500   51.3170   48.5690 C.2    13  ASP13       0.3668
      7  OD1       -5.8740   50.9480   47.8100 O.co2  13  ASP13      -0.2456
      8  OD2       -4.9880   52.3810   49.2020 O.co2  13  ASP13      -0.2456
      9  N         -1.7120   45.6320   47.4930 N.3    15  GLY15      -0.1210
     10  CA        -1.0670   45.2020   46.2550 C.3    15  GLY15       0.1956
     11  C         -1.8090   44.0620   45.5750 C.2    15  GLY15       0.2612
     12  O         -1.2070   43.2060   44.9370 O.2    15  GLY15      -0.2717
     13  N         -3.1280   44.0560   45.6940 N.am   16  LYS16      -0.1965
     14  CA        -3.9620   42.9940   45.1190 C.3    16  LYS16       0.1728
     15  C         -3.9320   42.8990   43.5810 C.2    16  LYS16       0.2617
     16  O         -3.8300   41.7930   43.0420 O.2    16  LYS16      -0.2715
     17  CB        -5.4130   43.1340   45.6150 C.3    16  LYS16       0.0311
     18  CG        -5.6440   42.8210   47.1050 C.3    16  LYS16       0.0038
     19  CD        -6.8970   43.5430   47.6170 C.3    16  LYS16       0.0206
     20  CE        -6.6290   45.0430   47.6340 C.3    16  LYS16       0.1093
     21  NZ        -7.8320   45.8890   47.5670 N.3    16  LYS16      -0.1314
     22  N         -4.0340   44.0390   42.8890 N.am   17  GLY17      -0.1940
     23  CA        -4.0050   44.0540   41.4320 C.3    17  GLY17       0.2014
     24  C         -2.8090   43.3450   40.8050 C.2    17  GLY17       0.2638
     25  O         -2.9620   42.4700   39.9470 O.2    17  GLY17      -0.2714
     26  N         -1.6090   43.6990   41.2450 N.am   18  LYS18      -0.1977
     27  CA        -0.4060   43.0510   40.7320 C.3    18  LYS18       0.1596
     28  C         -0.4640   41.5340   40.9330 C.2    18  LYS18       0.2287
     29  O         -0.2240   40.7630   40.0050 O.2    18  LYS18      -0.2864
     30  CB         0.8560   43.5830   41.4330 C.3    18  LYS18       0.0298
     31  CG         2.0310   42.6360   41.2580 C.3    18  LYS18       0.0038
     32  CD         3.3530   43.1310   41.7780 C.3    18  LYS18       0.0206
     33  CE         4.3380   41.9870   41.6650 C.3    18  LYS18       0.1093
     34  NZ         5.7320   42.3480   42.0230 N.3    18  LYS18      -0.1314
     35  N         -8.9700   50.9500   43.2030 N.3    40  GLY40      -0.1210
     36  CA        -8.0800   51.4720   42.1890 C.3    40  GLY40       0.1956
     37  C         -6.7790   50.7010   42.2970 C.2    40  GLY40       0.2612
     38  O         -6.1760   50.6680   43.3760 O.2    40  GLY40      -0.2717
     39  N         -6.3790   50.0150   41.2280 N.am   41  HIS41      -0.1961
     40  CA        -5.1400   49.2390   41.2590 C.3    41  HIS41       0.1787
     41  C         -4.1990   49.5980   40.1170 C.2    41  HIS41       0.2620
     42  O         -4.6350   49.8350   38.9880 O.2    41  HIS41      -0.2715
     43  CB        -5.4040   47.7280   41.1580 C.3    41  HIS41       0.0785
     44  CG        -6.7810   47.3020   41.5660 C.ar   41  HIS41       0.0821
     45  ND1       -7.1040   46.9760   42.8630 N.ar   41  HIS41      -0.2267
     46  CD2       -7.8900   47.0490   40.8270 C.ar   41  HIS41       0.1154
     47  CE1       -8.3500   46.5320   42.9060 C.ar   41  HIS41       0.1986
     48  NE2       -8.8460   46.5660   41.6840 N.ar   41  HIS41      -0.2212
     49  N         -2.9060   49.5950   40.4030 N.am   42  THR42      -0.1951
     50  CA        -1.9140   49.8740   39.3840 C.3    42  THR42       0.1897
     51  C         -1.1460   48.6020   39.0130 C.2    42  THR42       0.2313
     52  O         -0.4240   48.0270   39.8420 O.2    42  THR42      -0.2863
     53  CB        -0.9240   50.9390   39.8390 C.3    42  THR42       0.1794
     54  OG1       -1.6100   52.1800   40.0320 O.3    42  THR42      -0.2208
     55  CG2        0.1780   51.1170   38.8070 C.3    42  THR42       0.0378
     56  N          1.5990   46.7260   36.4230 N.3    44  VAL44      -0.1245
     57  CA         2.7810   47.1010   35.6600 C.3    44  VAL44       0.1561
     58  C          3.4430   45.9070   35.0030 C.2    44  VAL44       0.2260
     59  O          3.9020   44.9890   35.6880 O.2    44  VAL44      -0.2867
     60  CB         3.8270   47.7800   36.5740 C.3    44  VAL44       0.0252
     61  CG1        5.1340   48.0430   35.8130 C.3    44  VAL44       0.0019
     62  CG2        3.2580   49.0750   37.1510 C.3    44  VAL44       0.0019
     63  N          2.1400   50.6060   32.6120 N.3    49  LYS49      -0.1245
     64  CA         1.1620   50.6730   33.6930 C.3    49  LYS49       0.1561
     65  C         -0.2740   50.5930   33.2160 C.2    49  LYS49       0.2260
     66  O         -0.6180   51.1160   32.1520 O.2    49  LYS49      -0.2867
     67  CB         1.2840   51.9940   34.4510 C.3    49  LYS49       0.0271
     68  CG         2.6790   52.4610   34.7540 C.3    49  LYS49       0.0035
     69  CD         2.6170   53.7270   35.5920 C.3    49  LYS49       0.0206
     70  CE         2.2740   53.4340   37.0530 C.3    49  LYS49       0.1093
     71  NZ         3.4940   53.2560   37.8950 N.3    49  LYS49      -0.1314
     72  N          8.7330   56.6470   49.3670 N.3   293  GLN293     -0.1231
     73  CA         9.3070   55.4310   48.7910 C.3   293  GLN293      0.1698
     74  C          8.3370   54.4290   48.1720 C.2   293  GLN293      0.2593
     75  O          8.6700   53.7620   47.1700 O.2   293  GLN293     -0.2718
     76  CB        10.1850   54.7280   49.8210 C.3   293  GLN293      0.0381
     77  CG        11.4270   55.5040   50.1770 C.3   293  GLN293      0.0905
     78  CD        12.2110   55.9000   48.9470 C.2   293  GLN293      0.2608
     79  OE1       12.3730   57.0930   48.6570 O.2   293  GLN293     -0.2717
     80  NE2       12.6660   54.9070   48.1890 N.am  293  GLN293     -0.0878
     81  N          7.1730   54.2810   48.8000 N.am  294  GLY294     -0.1942
     82  CA         6.1720   53.3610   48.3020 C.3   294  GLY294      0.2014
     83  C          5.1020   54.0970   47.5340 C.2   294  GLY294      0.2639
     84  O          4.0040   53.5720   47.3810 O.2   294  GLY294     -0.2714
     85  N          5.4460   55.2960   47.0480 N.am  295  ASN295     -0.1958
     86  CA         4.5590   56.1880   46.2850 C.3   295  ASN295      0.1819
     87  C          3.1120   56.0260   46.6960 C.2   295  ASN295      0.2621
     88  O          2.2360   55.7520   45.8650 O.2   295  ASN295     -0.2715
     89  CB         4.6920   55.9610   44.7730 C.3   295  ASN295      0.1195
     90  CG         3.9940   57.0380   43.9660 C.2   295  ASN295      0.2630
     91  OD1        4.1180   58.2270   44.2520 O.2   295  ASN295     -0.2716
     92  ND2        3.2600   56.6290   42.9500 N.am  295  ASN295     -0.0877
     93  N          2.8570   56.2330   47.9770 N.am  296  GLU296     -0.1977
     94  CA         1.5210   56.0400   48.5020 C.3   296  GLU296      0.1602
     95  C          0.5170   57.1450   48.2520 C.2   296  GLU296      0.2287
     96  O          0.3350   58.0460   49.0720 O.2   296  GLU296     -0.2864
     97  CB         1.5900   55.6610   49.9800 C.3   296  GLU296      0.0415
     98  CG         2.4240   54.3920   50.2540 C.3   296  GLU296      0.1163
     99  CD         1.7420   53.0850   49.8290 C.2   296  GLU296      0.3649
    100  OE1        0.6950   53.1140   49.1470 O.co2 296  GLU296     -0.2457
    101  OE2        2.2440   52.0040   50.1980 O.co2 296  GLU296     -0.2457
    102  N         -5.0360   55.4440   44.1590 N.3   299  ALA299     -0.1245
    103  CA        -5.1470   55.2000   42.7300 C.3   299  ALA299      0.1562
    104  C         -6.5110   55.6290   42.1910 C.2   299  ALA299      0.2260
    105  O         -6.7120   55.6730   40.9780 O.2   299  ALA299     -0.2867
    106  CB        -4.8980   53.7290   42.4230 C.3   299  ALA299      0.0290
    107  N         -1.7580   58.6960   51.0910 N.3   305  ARG305     -0.1245
    108  CA        -2.0960   57.6480   52.0450 C.3   305  ARG305      0.1563
    109  C         -1.3800   57.7710   53.3930 C.2   305  ARG305      0.2260
    110  O         -0.1530   57.9380   53.4460 O.2   305  ARG305     -0.2867
    111  CB        -1.8080   56.2710   51.4330 C.3   305  ARG305      0.0307
    112  CG        -2.6780   55.9300   50.2270 C.3   305  ARG305      0.0489
    113  CD        -2.1470   54.7280   49.4670 C.3   305  ARG305      0.2205
    114  NE        -3.0340   54.3670   48.3690 N.pl3 305  ARG305     -0.0865
    115  CZ        -2.6350   53.5630   47.3860 C.cat 305  ARG305      0.5346
    116  NH1       -1.4080   53.0660   47.3740 N.pl3 305  ARG305      0.1354
    117  NH2       -3.4920   53.2040   46.4430 N.pl3 305  ARG305      0.1354
    118  N          4.0910   42.2190   50.4110 N.3   330  THR330     -0.1203
    119  CA         4.3770   43.1650   49.3580 C.3   330  THR330      0.1994
    120  C          5.1760   44.3590   49.8100 C.2   330  THR330      0.2617
    121  O          5.1600   44.7190   50.9800 O.2   330  THR330     -0.2717
    122  CB         3.0810   43.7060   48.7130 C.3   330  THR330      0.1784
    123  OG1        2.3050   44.4010   49.7080 O.3   330  THR330     -0.2211
    124  CG2        2.2530   42.5770   48.0810 C.3   330  THR330      0.0376
    125  N          5.8450   44.9780   48.8400 N.am  331  LYS331     -0.1979
    126  CA         6.6660   46.1620   49.0230 C.3   331  LYS331      0.1596
    127  C          7.7830   46.0410   50.0640 C.2   331  LYS331      0.2287
    128  O          8.1060   47.0110   50.7670 O.2   331  LYS331     -0.2864
    129  CB         5.7720   47.3710   49.2670 C.3   331  LYS331      0.0298
    130  CG         4.6670   47.4520   48.2380 C.3   331  LYS331      0.0038
    131  CD         3.7160   48.6330   48.3800 C.3   331  LYS331      0.0206
    132  CE         4.2530   49.8770   47.6960 C.3   331  LYS331      0.1093
    133  NZ         3.1870   50.9210   47.5210 N.3   331  LYS331     -0.1314
    134  N         10.8570   45.8590   49.4290 N.3   333  ASP333     -0.1225
    135  CA        11.8750   46.7500   48.9020 C.3   333  ASP333      0.1805
    136  C         11.7490   48.1740   49.3970 C.2   333  ASP333      0.2597
    137  O         12.7310   48.9000   49.4530 O.2   333  ASP333     -0.2718
    138  CB        11.7500   46.7720   47.3930 C.3   333  ASP333      0.1424
    139  CG        10.3640   47.1320   46.9570 C.2   333  ASP333      0.3668
    140  OD1        9.4540   46.3000   47.1330 O.co2 333  ASP333     -0.2456
    141  OD2       10.1680   48.2660   46.4870 O.co2 333  ASP333     -0.2456
    142  N         10.5380   48.5950   49.7270 N.am  334  VAL334     -0.1980
    143  CA        10.3250   49.9700   50.1870 C.3   334  VAL334      0.1595
    144  C         10.9860   50.2770   51.5270 C.2   334  VAL334      0.2287
    145  O         11.3100   51.4350   51.8130 O.2   334  VAL334     -0.2864
    146  CB         8.8250   50.3080   50.2340 C.3   334  VAL334      0.0276
    147  CG1        8.6040   51.6780   50.8770 C.3   334  VAL334      0.0022
    148  CG2        8.2500   50.2830   48.7980 C.3   334  VAL334      0.0022
    149  N         14.9440   45.4250   45.9350 N.3   383  PHE383     -0.1241
    150  CA        14.1330   45.7260   44.7690 C.3   383  PHE383      0.1605
    151  C         14.5000   44.8400   43.5800 C.2   383  PHE383      0.2264
    152  O         15.6660   44.7700   43.1830 O.2   383  PHE383     -0.2867
    153  CB        14.2820   47.1950   44.3710 C.3   383  PHE383      0.0534
    154  CG        13.5160   47.5620   43.1160 C.ar  383  PHE383     -0.0203
    155  CD1       12.2460   48.1280   43.1990 C.ar  383  PHE383     -0.0042
    156  CD2       14.0590   47.3200   41.8520 C.ar  383  PHE383     -0.0042
    157  CE1       11.5320   48.4440   42.0550 C.ar  383  PHE383     -0.0003
    158  CE2       13.3500   47.6330   40.7050 C.ar  383  PHE383     -0.0003
    159  CZ        12.0840   48.1960   40.8080 C.ar  383  PHE383     -0.0000
    160  N          6.8470   40.0050   47.2410 N.3   414  SER414     -0.1217
    161  CA         6.9130   40.9820   46.1740 C.3   414  SER414      0.1889
    162  C          7.9660   42.0550   46.4640 C.2   414  SER414      0.2288
    163  O          7.8910   42.7630   47.4630 O.2   414  SER414     -0.2866
    164  CB         5.5380   41.5920   45.9470 C.3   414  SER414      0.2089
    165  OG         5.5970   42.6350   44.9970 O.3   414  SER414     -0.2183
    166  N          8.8680   44.5570   43.9950 N.3   416  GLY416     -0.1210
    167  CA         8.7610   45.6500   43.0490 C.3   416  GLY416      0.1940
    168  C          7.3900   45.6390   42.4120 C.2   416  GLY416      0.2453
    169  O          6.6610   44.6420   42.5340 O.2   416  GLY416     -0.2732
    170  N          6.9900   46.7390   41.7470 N.am  417  PRO417     -0.2728
    171  CA         5.6780   46.8310   41.0930 C.3   417  PRO417      0.1401
    172  C          5.4590   45.9440   39.8580 C.2   417  PRO417      0.2269
    173  O          4.3690   45.3820   39.6820 O.2   417  PRO417     -0.2865
    174  CB         5.5540   48.3240   40.7570 C.3   417  PRO417      0.0296
    175  CG         6.9570   48.7890   40.6310 C.3   417  PRO417      0.0237
    176  CD         7.6830   48.0400   41.7350 C.3   417  PRO417      0.0939
@<TRIPOS>BOND
     1    66    65    2
     2    63    64    1
     3    65    64    1
     4    64    67    1
     5    67    68    1
     6    68    69    1
     7    58    57    1
     8    58    59    2
     9    69    70    1
    10    57    56    1
    11    57    60    1
    12    61    60    1
    13    60    62    1
    14    70    71    1
    15    55    53    1
    16    42    41    2
    17    51    50    1
    18    51    52    2
    19    50    53    1
    20    50    49    1
    21   173   172    2
    22    53    54    1
    23   172   171    1
    24    25    24    2
    25    29    28    2
    26    41    49   am
    27    41    40    1
    28   175   174    1
    29   175   176    1
    30   158   159   ar
    31   158   156   ar
    32    27    28    1
    33    27    26    1
    34    27    30    1
    35   174   171    1
    36    24    26   am
    37    24    23    1
    38   159   157   ar
    39    46    44   ar
    40    46    48   ar
    41   105   104    2
    42   171   170    1
    43    43    40    1
    44    43    44    1
    45    39    40    1
    46    39    37   am
    47    31    30    1
    48    31    32    1
    49    23    22    1
    50    44    45   ar
    51    33    32    1
    52    33    34    1
    53    48    47   ar
    54   176   170    1
    55   170   168   am
    56   156   154   ar
    57   157   155   ar
    58    36    37    1
    59    36    35    1
    60   104   103    1
    61    37    38    2
    62   168   169    2
    63   168   167    1
    64   106   103    1
    65   103   102    1
    66    45    47   ar
    67    22    15   am
    68    92    90   am
    69    16    15    2
    70   167   166    1
    71   154   155   ar
    72   154   153    1
    73   152   151    2
    74   151   150    1
    75    15    14    1
    76    90    91    2
    77    90    89    1
    78   153   150    1
    79   150   149    1
    80    89    86    1
    81    12    11    2
    82   165   164    1
    83    14    17    1
    84    14    13    1
    85    11    13   am
    86    11    10    1
    87    17    18    1
    88    88    87    2
    89   164   161    1
    90   161   162    1
    91   161   160    1
    92    10     9    1
    93    86    87    1
    94    86    85    1
    95   117   115    1
    96   162   163    2
    97   141   139   ar
    98    87    93   am
    99   139   140   ar
   100   139   138    1
   101    85    83   am
   102    18    19    1
   103    75    74    2
   104   116   115    1
   105    84    83    2
   106   115   114    2
   107   138   135    1
   108   133   132    1
   109    83    82    1
   110    21    20    1
   111    19    20    1
   112   132   131    1
   113     7     6   ar
   114    93    94    1
   115   124   122    1
   116    74    73    1
   117    74    81   am
   118    80    78   am
   119   130   131    1
   120   130   129    1
   121    95    94    1
   122    95    96    2
   123    82    81    1
   124   114   113    1
   125    94    97    1
   126     6     5    1
   127     6     8   ar
   128     2     5    1
   129     2     3    1
   130     2     1    1
   131    79    78    2
   132   122   119    1
   133   122   123    1
   134    73    72    1
   135    73    76    1
   136   148   146    1
   137   125   126    1
   138   125   120   am
   139   135   136    1
   140   135   134    1
   141    78    77    1
   142   126   129    1
   143   126   127    1
   144     3     4    2
   145   100    99   ar
   146   119   120    1
   147   119   118    1
   148   136   137    2
   149   136   142   am
   150   113   112    1
   151   142   143    1
   152   120   121    2
   153    76    77    1
   154    99   101   ar
   155    99    98    1
   156    97    98    1
   157   127   128    2
   158   143   146    1
   159   143   144    1
   160   112   111    1
   161   146   147    1
   162   107   108    1
   163   111   108    1
   164   144   145    2
   165   108   109    1
   166   109   110    2
