@<TRIPOS>MOLECULE
tmp/1chmB00.pdb
 154 148 0 0 0
SMALL
GASTEIGER

@<TRIPOS>ATOM
      1  N         40.7000   75.8220   56.6940 N.3   220  TRP220     -0.1241
      2  CA        42.0450   75.3720   56.7150 C.3   220  TRP220      0.1605
      3  C         42.6820   76.1200   57.9330 C.2   220  TRP220      0.2264
      4  O         42.4070   77.2950   58.0430 O.2   220  TRP220     -0.2867
      5  CB        42.7670   75.7450   55.4620 C.3   220  TRP220      0.0550
      6  CG        42.4940   74.7880   54.2700 C.ar  220  TRP220      0.0003
      7  CD1       42.4620   73.4310   54.1970 C.ar  220  TRP220      0.0946
      8  CD2       42.3820   75.2320   52.9550 C.ar  220  TRP220      0.0152
      9  NE1       42.3280   73.0000   52.8300 N.ar  220  TRP220     -0.2442
     10  CE2       42.2710   74.0590   52.1080 C.ar  220  TRP220      0.0810
     11  CE3       42.4160   76.5450   52.4120 C.ar  220  TRP220      0.0012
     12  CZ2       42.0110   74.2110   50.7100 C.ar  220  TRP220      0.0191
     13  CZ3       42.3050   76.6280   50.9750 C.ar  220  TRP220      0.0001
     14  CH2       42.0890   75.5530   50.1550 C.ar  220  TRP220      0.0015
     15  N         49.1780   78.7560   51.1630 N.3   230  ALA230     -0.1231
     16  CA        47.8600   79.3250   51.5540 C.3   230  ALA230      0.1694
     17  C         46.6990   78.2870   51.4100 C.2   230  ALA230      0.2592
     18  O         45.7830   78.2690   52.3050 O.2   230  ALA230     -0.2718
     19  CB        47.6170   80.4400   50.6290 C.3   230  ALA230      0.0304
     20  N         46.9440   77.2390   50.4880 N.am  231  HIS231     -0.1976
     21  CA        45.9280   76.1000   50.5630 C.3   231  HIS231      0.1656
     22  C         46.3760   74.7520   51.1190 C.2   231  HIS231      0.2291
     23  O         45.8120   73.7260   50.7430 O.2   231  HIS231     -0.2864
     24  CB        45.4410   75.7570   49.2030 C.3   231  HIS231      0.0771
     25  CG        44.9810   77.0110   48.3940 C.ar  231  HIS231      0.0820
     26  ND1       45.1330   77.0620   47.0200 N.ar  231  HIS231     -0.2267
     27  CD2       44.4000   78.1420   48.8120 C.ar  231  HIS231      0.1154
     28  CE1       44.6440   78.3360   46.6280 C.ar  231  HIS231      0.1986
     29  NE2       44.1920   79.0110   47.7250 N.ar  231  HIS231     -0.2212
     30  N         41.4960   80.0680   58.1900 N.3   248  ASN248     -0.1296
     31  CA        40.9430   80.3440   56.8340 C.3   248  ASN248      0.1339
     32  C         39.6150   79.6840   56.8020 C.3   248  ASN248      0.2014
     33  O         39.6430   78.4550   57.0030 O.3   248  ASN248     -0.2188
     34  CB        41.7890   79.5810   55.8080 C.3   248  ASN248      0.1102
     35  CG        43.2540   80.0760   55.6780 C.2   248  ASN248      0.2623
     36  OD1       43.4450   81.0150   54.9300 O.2   248  ASN248     -0.2716
     37  ND2       44.2700   79.4220   56.3710 N.am  248  ASN248     -0.0877
     38  N         35.7870   78.9400   55.0350 N.3   250  PHE250     -0.1241
     39  CA        35.1370   79.1210   53.7520 C.3   250  PHE250      0.1605
     40  C         33.6990   78.5880   53.7320 C.2   250  PHE250      0.2264
     41  O         33.5420   77.3730   53.4070 O.2   250  PHE250     -0.2867
     42  CB        35.8610   78.3130   52.6510 C.3   250  PHE250      0.0534
     43  CG        37.3890   78.6300   52.7420 C.ar  250  PHE250     -0.0203
     44  CD1       37.8900   79.7170   52.0490 C.ar  250  PHE250     -0.0042
     45  CD2       38.2330   77.8350   53.5160 C.ar  250  PHE250     -0.0042
     46  CE1       39.2290   80.0000   51.9960 C.ar  250  PHE250     -0.0003
     47  CE2       39.5640   78.0760   53.5500 C.ar  250  PHE250     -0.0003
     48  CZ        40.0900   79.1190   52.7510 C.ar  250  PHE250     -0.0000
     49  N         30.9910   81.2290   47.1880 N.3   257  TYR257     -0.1241
     50  CA        32.1560   81.1070   48.0310 C.3   257  TYR257      0.1605
     51  C         32.3640   82.4440   48.7540 C.2   257  TYR257      0.2264
     52  O         32.5470   83.4190   48.0720 O.2   257  TYR257     -0.2867
     53  CB        33.3840   80.9220   47.0800 C.3   257  TYR257      0.0534
     54  CG        34.7890   80.9990   47.7350 C.ar  257  TYR257     -0.0201
     55  CD1       35.3090   79.9660   48.5280 C.ar  257  TYR257     -0.0009
     56  CD2       35.5170   82.1460   47.4930 C.ar  257  TYR257     -0.0009
     57  CE1       36.6040   80.0700   49.0970 C.ar  257  TYR257      0.0417
     58  CE2       36.7660   82.3170   48.0230 C.ar  257  TYR257      0.0417
     59  CZ        37.3510   81.2980   48.8830 C.ar  257  TYR257      0.1957
     60  OH        38.7220   81.4380   49.2090 O.3   257  TYR257     -0.2866
     61  N         40.5150   84.8850   56.1630 N.3   261  GLU261     -0.1245
     62  CA        41.8560   84.4080   56.3790 C.3   261  GLU261      0.1567
     63  C         42.5670   85.4930   57.2830 C.2   261  GLU261      0.2260
     64  O         42.3910   86.7090   57.1440 O.2   261  GLU261     -0.2867
     65  CB        42.5420   84.3220   55.0790 C.3   261  GLU261      0.0388
     66  CG        41.5990   83.5700   54.1570 C.3   261  GLU261      0.1160
     67  CD        42.2260   83.3280   52.8060 C.2   261  GLU261      0.3649
     68  OE1       43.3600   83.7770   52.5140 O.co2 261  GLU261     -0.2457
     69  OE2       41.5530   82.7060   51.9910 O.co2 261  GLU261     -0.2457
     70  N         51.8110   85.1500   45.8150 N.3   319  PHE319     -0.1241
     71  CA        50.5610   84.9330   44.8610 C.3   319  PHE319      0.1605
     72  C         49.8880   86.3300   44.6470 C.2   319  PHE319      0.2264
     73  O         50.2530   87.2390   45.4150 O.2   319  PHE319     -0.2867
     74  CB        49.5420   83.7430   45.2830 C.3   319  PHE319      0.0534
     75  CG        48.6430   84.0050   46.5020 C.ar  319  PHE319     -0.0203
     76  CD1       49.1390   83.8380   47.7850 C.ar  319  PHE319     -0.0042
     77  CD2       47.3780   84.5470   46.3380 C.ar  319  PHE319     -0.0042
     78  CE1       48.3700   84.0910   48.9280 C.ar  319  PHE319     -0.0003
     79  CE2       46.5730   84.8280   47.4810 C.ar  319  PHE319     -0.0003
     80  CZ        47.0430   84.5680   48.7750 C.ar  319  PHE319     -0.0000
     81  N         44.5180   89.3080   45.1500 N.3   322  GLY322     -0.1210
     82  CA        43.0870   89.2350   45.3300 C.3   322  GLY322      0.1956
     83  C         42.5340   88.6780   44.0180 C.2   322  GLY322      0.2611
     84  O         43.2120   88.5770   42.9820 O.2   322  GLY322     -0.2717
     85  N         41.2530   88.2810   44.1130 N.am  323  HIS323     -0.1975
     86  CA        40.6510   87.5780   42.9600 C.3   323  HIS323      0.1656
     87  C         39.1650   87.9250   42.9840 C.2   323  HIS323      0.2291
     88  O         38.6630   88.4710   43.9790 O.2   323  HIS323     -0.2864
     89  CB        40.8150   85.9690   42.9450 C.3   323  HIS323      0.0771
     90  CG        40.1850   85.2730   44.1840 C.ar  323  HIS323      0.0820
     91  ND1       38.7820   84.9880   44.2020 N.ar  323  HIS323     -0.2267
     92  CD2       40.7050   84.9340   45.4680 C.ar  323  HIS323      0.1154
     93  CE1       38.5150   84.3340   45.5280 C.ar  323  HIS323      0.1986
     94  NE2       39.7170   84.4210   46.2330 N.ar  323  HIS323     -0.2212
     95  N         31.9730   79.8900   42.9190 N.3   328  LEU328     -0.1245
     96  CA        33.3690   79.2680   42.6880 C.3   328  LEU328      0.1561
     97  C         33.6860   78.4750   43.9990 C.2   328  LEU328      0.2260
     98  O         32.9410   78.6410   44.9750 O.2   328  LEU328     -0.2867
     99  CB        34.4880   80.3210   42.3010 C.3   328  LEU328      0.0270
    100  CG        34.8390   81.0790   43.5180 C.3   328  LEU328      0.0019
    101  CD1       36.3910   81.2950   43.5970 C.3   328  LEU328      0.0001
    102  CD2       34.0770   82.4000   43.6170 C.3   328  LEU328      0.0001
    103  N         35.8580   80.7260   39.2930 N.3   334  ARG334     -0.1245
    104  CA        36.9630   81.7660   39.2680 C.3   334  ARG334      0.1563
    105  C         37.0330   82.5060   37.9190 C.2   334  ARG334      0.2260
    106  O         36.9790   81.8990   36.8720 O.2   334  ARG334     -0.2867
    107  CB        38.4200   81.2750   39.8020 C.3   334  ARG334      0.0307
    108  CG        39.3570   82.3890   40.4120 C.3   334  ARG334      0.0489
    109  CD        40.6880   81.7150   40.6860 C.3   334  ARG334      0.2205
    110  NE        41.6530   82.7030   41.1220 N.pl3 334  ARG334     -0.0865
    111  CZ        42.3180   82.7080   42.2450 C.cat 334  ARG334      0.5346
    112  NH1       42.2180   81.6030   43.0340 N.pl3 334  ARG334      0.1354
    113  NH2       43.2610   83.6820   42.2900 N.pl3 334  ARG334      0.1354
    114  N         46.8470   91.0150   39.6290 N.3   341  ARG341     -0.1245
    115  CA        48.2480   90.5800   39.2180 C.3   341  ARG341      0.1563
    116  C         48.7780   91.5820   38.2310 C.2   341  ARG341      0.2260
    117  O         47.9270   92.2910   37.6710 O.2   341  ARG341     -0.2867
    118  CB        48.2570   89.1900   38.4820 C.3   341  ARG341      0.0307
    119  CG        47.6380   88.0760   39.4480 C.3   341  ARG341      0.0489
    120  CD        47.3170   86.7080   38.8020 C.3   341  ARG341      0.2205
    121  NE        46.6280   85.8550   39.8310 N.pl3 341  ARG341     -0.0865
    122  CZ        46.2360   84.6080   39.4240 C.cat 341  ARG341      0.5346
    123  NH1       46.5090   84.2640   38.1230 N.pl3 341  ARG341      0.1354
    124  NH2       45.4410   83.7370   40.1250 N.pl3 341  ARG341      0.1354
    125  N         44.2080   90.4960   49.8800 N.3   357  GLU357     -0.1245
    126  CA        44.7860   89.3040   50.4980 C.3   357  GLU357      0.1567
    127  C         46.2580   89.2910   50.1350 C.2   357  GLU357      0.2260
    128  O         46.7040   88.2490   49.6190 O.2   357  GLU357     -0.2867
    129  CB        44.0950   87.9080   50.2100 C.3   357  GLU357      0.0388
    130  CG        44.0510   87.6090   48.7260 C.3   357  GLU357      0.1160
    131  CD        43.4120   86.2210   48.5900 C.2   357  GLU357      0.3649
    132  OE1       43.8020   85.2850   49.3120 O.co2 357  GLU357     -0.2457
    133  OE2       42.5070   86.0600   47.7330 O.co2 357  GLU357     -0.2457
    134  N         49.2150   86.2580   56.1570 N.3   373  ARG373     -0.1245
    135  CA        48.2320   86.7040   55.1330 C.3   373  ARG373      0.1563
    136  C         46.9150   87.1310   55.7650 C.2   373  ARG373      0.2260
    137  O         46.5430   86.5750   56.7920 O.2   373  ARG373     -0.2867
    138  CB        47.9140   85.4760   54.2680 C.3   373  ARG373      0.0307
    139  CG        46.7840   85.6620   53.2050 C.3   373  ARG373      0.0489
    140  CD        46.6380   84.2810   52.4050 C.3   373  ARG373      0.2205
    141  NE        46.0150   83.1790   53.2150 N.pl3 373  ARG373     -0.0865
    142  CZ        46.6630   82.1880   53.8060 C.cat 373  ARG373      0.5346
    143  NH1       47.9850   82.1080   53.6940 N.pl3 373  ARG373      0.1354
    144  NH2       46.0570   81.3220   54.6510 N.pl3 373  ARG373      0.1354
    145  N         42.9080   88.3810   54.8320 N.3   375  HIS375     -0.1241
    146  CA        42.0320   88.3730   53.6020 C.3   375  HIS375      0.1621
    147  C         40.7120   89.0800   53.8390 C.2   375  HIS375      0.2264
    148  O         39.9570   88.6370   54.7120 O.2   375  HIS375     -0.2867
    149  CB        41.8210   86.8870   53.2170 C.3   375  HIS375      0.0745
    150  CG        40.7190   86.6520   52.1790 C.ar  375  HIS375      0.0817
    151  ND1       39.3590   86.9670   52.4080 N.ar  375  HIS375     -0.2268
    152  CD2       40.7860   86.2170   50.9330 C.ar  375  HIS375      0.1154
    153  CE1       38.6540   86.6940   51.2540 C.ar  375  HIS375      0.1986
    154  NE2       39.5690   86.1960   50.3300 N.ar  375  HIS375     -0.2212
@<TRIPOS>BOND
     1   106   105    2
     2   117   116    2
     3   105   104    1
     4   123   122    1
     5   116   115    1
     6   118   115    1
     7   118   119    1
     8   120   119    1
     9   120   121    1
    10   115   114    1
    11   104   103    1
    12   104   107    1
    13   122   121    2
    14   122   124    1
    15   107   108    1
    16   108   109    1
    17   109   110    1
    18   110   111    2
    19   111   113    1
    20   111   112    1
    21    99    96    1
    22    99   100    1
    23    96    95    1
    24    96    97    1
    25    89    86    1
    26    89    90    1
    27    86    87    1
    28    86    85    1
    29    84    83    2
    30    87    88    2
    31   100   101    1
    32   100   102    1
    33    97    98    2
    34    83    85   am
    35    83    82    1
    36    90    91   ar
    37    90    92   ar
    38    91    93   ar
    39    72    71    1
    40    72    73    2
    41    71    74    1
    42    71    70    1
    43    81    82    1
    44    74    75    1
    45    92    94   ar
    46    93    94   ar
    47    77    75   ar
    48    77    79   ar
    49    75    76   ar
    50    28    26   ar
    51    28    29   ar
    52    26    25   ar
    53    53    54    1
    54    53    50    1
    55    49    50    1
    56    79    80   ar
    57    56    54   ar
    58    56    58   ar
    59    29    27   ar
    60   133   131   ar
    61    54    55   ar
    62    76    78   ar
    63    58    59   ar
    64    50    51    1
    65    52    51    2
    66    25    27   ar
    67    25    24    1
    68    55    57   ar
    69   131   130    1
    70   131   132   ar
    71   130   129    1
    72    80    78   ar
    73    59    57   ar
    74    59    60    1
    75    24    21    1
    76   128   127    2
    77   125   126    1
    78   127   126    1
    79    14    12   ar
    80    14    13   ar
    81   129   126    1
    82   154   152   ar
    83   154   153   ar
    84    20    21    1
    85    20    17   am
    86    21    22    1
    87    19    16    1
    88    12    10   ar
    89    23    22    2
    90   152   150   ar
    91    13    11   ar
    92    15    16    1
    93   153   151   ar
    94    17    16    1
    95    17    18    2
    96    69    67   ar
    97    46    44   ar
    98    46    48   ar
    99    44    43   ar
   100    10     9   ar
   101    10     8   ar
   102   150   151   ar
   103   150   149    1
   104   140   139    1
   105   140   141    1
   106    11     8   ar
   107    68    67   ar
   108    42    43    1
   109    42    39    1
   110    43    45   ar
   111    48    47   ar
   112    67    66    1
   113     9     7   ar
   114     8     6   ar
   115   139   138    1
   116   141   142    2
   117   149   146    1
   118    41    40    2
   119    45    47   ar
   120   146   147    1
   121   146   145    1
   122   143   142    1
   123    40    39    1
   124    39    38    1
   125   142   144    1
   126   147   148    2
   127    66    65    1
   128     7     6   ar
   129   138   135    1
   130     6     5    1
   131    36    35    2
   132    65    62    1
   133   135   136    1
   134   135   134    1
   135     5     2    1
   136    35    34    1
   137    35    37   am
   138   136   137    2
   139    34    31    1
   140    61    62    1
   141    62    63    1
   142     1     2    1
   143     2     3    1
   144    32    31    1
   145    32    33    1
   146    31    30    1
   147    64    63    2
   148     3     4    2
