@<TRIPOS>MOLECULE
tmp/1chwB00.pdb
 212 202 0 0 0
SMALL
GASTEIGER

@<TRIPOS>ATOM
      1  N        -11.7850   59.8550   96.5920 N.3    55  LYS55      -0.1301
      2  CA       -11.0440   58.9120   97.4100 C.3    55  LYS55       0.1247
      3  C        -11.5580   57.4650   97.3910 C.3    55  LYS55       0.2009
      4  O        -10.6790   56.6130   97.3870 O.3    55  LYS55      -0.2188
      5  CB       -11.1080   59.2090   98.8920 C.3    55  LYS55       0.0218
      6  CG       -10.3020   60.4470   99.2290 C.3    55  LYS55       0.0031
      7  CD        -9.5970   60.0720  100.5440 C.3    55  LYS55       0.0205
      8  CE        -9.2640   61.3220  101.3390 C.3    55  LYS55       0.1093
      9  NZ        -8.8290   62.5060  100.5500 N.3    55  LYS55      -0.1314
     10  N        -10.7200   55.8850   93.9300 N.3    58  ARG58      -0.1231
     11  CA        -9.3740   55.3680   93.9760 C.3    58  ARG58       0.1694
     12  C         -9.1980   54.0530   94.7310 C.2    58  ARG58       0.2588
     13  O         -8.4340   53.1050   94.4840 O.2    58  ARG58      -0.2718
     14  CB        -8.5450   56.4010   94.7410 C.3    58  ARG58       0.0321
     15  CG        -7.2690   56.7390   93.9820 C.3    58  ARG58       0.0489
     16  CD        -7.3160   58.1690   93.4160 C.3    58  ARG58       0.2205
     17  NE        -7.2740   59.0050   94.6380 N.pl3  58  ARG58      -0.0865
     18  CZ        -8.0270   60.0720   94.8790 C.cat  58  ARG58       0.5346
     19  NH1       -8.9140   60.5290   93.9970 N.pl3  58  ARG58       0.1354
     20  NH2       -7.8990   60.7250   96.0320 N.pl3  58  ARG58       0.1354
     21  N         -9.8020   54.0140   95.9300 N.am   59  MET59      -0.2033
     22  CA        -9.8500   52.7900   96.7340 C.3    59  MET59       0.1291
     23  C        -10.5370   51.6450   95.9990 C.3    59  MET59       0.2036
     24  O         -9.9360   50.5610   96.0910 O.3    59  MET59      -0.2185
     25  CB       -10.6530   52.9070   98.0270 C.3    59  MET59       0.0360
     26  CG       -10.0620   53.7840   99.0920 C.3    59  MET59       0.0594
     27  SD       -11.1320   54.0750  100.5160 S.3    59  MET59      -0.1393
     28  CE       -10.1950   55.1770  101.5160 C.3    59  MET59       0.0692
     29  N         -8.2480   50.5610   93.0000 N.3    62  LYS62      -0.1231
     30  CA        -7.1030   49.8360   93.4960 C.3    62  LYS62       0.1693
     31  C         -7.4440   48.5390   94.2390 C.2    62  LYS62       0.2592
     32  O         -6.6120   47.6610   94.5010 O.2    62  LYS62      -0.2718
     33  CB        -6.3330   50.6820   94.4940 C.3    62  LYS62       0.0285
     34  CG        -4.9960   51.2820   94.2490 C.3    62  LYS62       0.0035
     35  CD        -4.9310   52.5360   93.4290 C.3    62  LYS62       0.0206
     36  CE        -3.6510   52.6860   92.6070 C.3    62  LYS62       0.1093
     37  NZ        -3.9710   53.1250   91.2160 N.3    62  LYS62      -0.1314
     38  N         -8.6750   48.3220   94.6240 N.am   63  SER63      -0.1952
     39  CA        -9.1180   47.1480   95.3780 C.3    63  SER63       0.1924
     40  C         -8.7410   45.8360   94.7080 C.2    63  SER63       0.2314
     41  O         -8.4190   44.9000   95.4680 O.2    63  SER63      -0.2863
     42  CB       -10.6240   47.1980   95.6390 C.3    63  SER63       0.2116
     43  OG       -11.4950   46.9200   94.5540 O.3    63  SER63      -0.2180
     44  N        -12.1290   38.1350  110.5220 N.3   164  SER164     -0.1217
     45  CA       -11.6920   37.6520  109.2070 C.3   164  SER164      0.1889
     46  C        -10.6800   36.5440  109.2610 C.2   164  SER164      0.2288
     47  O        -10.2220   35.9210  108.3160 O.2   164  SER164     -0.2866
     48  CB       -11.1000   38.8430  108.3970 C.3   164  SER164      0.2089
     49  OG       -12.2700   39.6240  108.1170 O.3   164  SER164     -0.2183
     50  N        -11.9020   57.3580  107.4920 N.3   206  LEU206     -0.1231
     51  CA       -11.5820   56.7980  106.1730 C.3   206  LEU206      0.1693
     52  C        -11.4140   55.3040  106.2200 C.2   206  LEU206      0.2592
     53  O        -11.5130   54.4430  105.3360 O.2   206  LEU206     -0.2718
     54  CB       -10.4370   57.6310  105.6430 C.3   206  LEU206      0.0284
     55  CG       -10.8650   59.1080  105.3450 C.3   206  LEU206      0.0019
     56  CD1       -9.5130   59.8150  105.2600 C.3   206  LEU206      0.0001
     57  CD2      -11.7970   59.3170  104.1920 C.3   206  LEU206      0.0001
     58  N        -11.0300   54.8530  107.4380 N.am  207  ASP207     -0.1974
     59  CA       -10.8920   53.3970  107.6990 C.3   207  ASP207      0.1709
     60  C        -12.2000   52.6460  107.5400 C.2   207  ASP207      0.2293
     61  O        -12.1250   51.5670  106.9330 O.2   207  ASP207     -0.2864
     62  CB       -10.2400   53.2050  109.0420 C.3   207  ASP207      0.1436
     63  CG       -10.8100   53.8300  110.2870 C.2   207  ASP207      0.3671
     64  OD1      -11.5810   54.8280  110.3360 O.co2 207  ASP207     -0.2456
     65  OD2      -10.4850   53.3190  111.4140 O.co2 207  ASP207     -0.2456
     66  N        -12.6940   52.3580  103.6720 N.3   210  VAL210     -0.1231
     67  CA       -11.9220   51.2470  103.0810 C.3   210  VAL210      0.1692
     68  C        -12.6570   49.9170  103.1630 C.2   210  VAL210      0.2592
     69  O        -12.8040   49.0910  102.2640 O.2   210  VAL210     -0.2718
     70  CB       -10.6190   51.1460  103.9120 C.3   210  VAL210      0.0266
     71  CG1       -9.9830   49.7710  103.8500 C.3   210  VAL210      0.0020
     72  CG2       -9.5610   52.1520  103.5130 C.3   210  VAL210      0.0020
     73  N        -13.1470   49.6320  104.3980 N.am  211  GLY211     -0.1957
     74  CA       -14.1310   48.5410  104.5220 C.3   211  GLY211      0.1869
     75  C        -15.2090   48.4510  103.4590 C.2   211  GLY211      0.2309
     76  O        -15.4710   47.3310  102.9730 O.2   211  GLY211     -0.2863
     77  N        -15.2200   49.5920  100.5040 N.3   213  ALA213     -0.1231
     78  CA       -14.7060   49.2260   99.1390 C.3   213  ALA213      0.1694
     79  C        -14.4510   47.7510   98.9280 C.2   213  ALA213      0.2592
     80  O        -14.0970   47.2540   97.8450 O.2   213  ALA213     -0.2718
     81  CB       -13.3700   49.9760   99.0400 C.3   213  ALA213      0.0304
     82  N        -14.2110   47.0840  100.1000 N.am  214  LEU214     -0.1966
     83  CA       -13.7560   45.6940  100.0630 C.3   214  LEU214      0.1728
     84  C        -14.6110   44.5270  100.4420 C.2   214  LEU214      0.2616
     85  O        -14.5760   43.4360   99.8710 O.2   214  LEU214     -0.2715
     86  CB       -12.5260   45.6110  101.0040 C.3   214  LEU214      0.0311
     87  CG       -11.4390   46.6140  100.6670 C.3   214  LEU214      0.0022
     88  CD1      -10.3600   46.6470  101.7150 C.3   214  LEU214      0.0001
     89  CD2      -10.8740   46.2700   99.2690 C.3   214  LEU214      0.0001
     90  N        -15.4800   44.6710  101.4410 N.am  215  PHE215     -0.1974
     91  CA       -16.2380   43.5180  101.8950 C.3   215  PHE215      0.1639
     92  C        -17.4620   43.0980  101.0950 C.2   215  PHE215      0.2290
     93  O        -18.2310   43.9320  100.7130 O.2   215  PHE215     -0.2864
     94  CB       -16.7930   43.8180  103.2850 C.3   215  PHE215      0.0560
     95  CG       -15.7840   43.6540  104.3770 C.ar  215  PHE215     -0.0200
     96  CD1      -15.4920   42.4140  104.9330 C.ar  215  PHE215     -0.0042
     97  CD2      -15.1080   44.7560  104.8770 C.ar  215  PHE215     -0.0042
     98  CE1      -14.5810   42.2770  105.9710 C.ar  215  PHE215     -0.0003
     99  CE2      -14.1860   44.6370  105.9140 C.ar  215  PHE215     -0.0003
    100  CZ       -13.9270   43.3970  106.4780 C.ar  215  PHE215     -0.0000
    101  N         -7.0420   46.1640  114.1320 N.3   254  ILE254     -0.1245
    102  CA        -8.3280   45.8710  113.5780 C.3   254  ILE254      0.1561
    103  C         -9.3350   45.7970  114.6950 C.2   254  ILE254      0.2260
    104  O         -9.3280   44.7590  115.3890 O.2   254  ILE254     -0.2867
    105  CB        -8.3670   44.5490  112.7370 C.3   254  ILE254      0.0252
    106  CG1       -7.3860   44.5800  111.5650 C.3   254  ILE254      0.0019
    107  CG2       -9.7800   44.2520  112.2970 C.3   254  ILE254      0.0019
    108  CD1       -7.1350   43.2930  110.8290 C.3   254  ILE254      0.0001
    109  N        -16.3060   49.1060  112.1560 N.3   265  PHE265     -0.1241
    110  CA       -14.9490   48.6050  112.0090 C.3   265  PHE265      0.1605
    111  C        -14.0240   49.8090  112.1140 C.2   265  PHE265      0.2264
    112  O        -14.3510   51.0020  111.9750 O.2   265  PHE265     -0.2867
    113  CB       -14.8150   47.8200  110.6960 C.3   265  PHE265      0.0534
    114  CG       -15.1250   46.3510  110.7940 C.ar  265  PHE265     -0.0203
    115  CD1      -14.0810   45.5760  111.3150 C.ar  265  PHE265     -0.0042
    116  CD2      -16.2930   45.7360  110.3940 C.ar  265  PHE265     -0.0042
    117  CE1      -14.2090   44.2030  111.4350 C.ar  265  PHE265     -0.0003
    118  CE2      -16.4250   44.3590  110.5150 C.ar  265  PHE265     -0.0003
    119  CZ       -15.3950   43.6150  111.0270 C.ar  265  PHE265     -0.0000
    120  N         -9.7370   50.7160  111.7020 N.3   267  LEU267     -0.1245
    121  CA        -8.3880   50.3140  111.3770 C.3   267  LEU267      0.1561
    122  C         -7.3970   51.3090  111.9620 C.2   267  LEU267      0.2260
    123  O         -7.2050   52.4560  111.5370 O.2   267  LEU267     -0.2867
    124  CB        -8.1920   50.1770  109.8700 C.3   267  LEU267      0.0270
    125  CG        -8.9170   48.9880  109.2120 C.3   267  LEU267      0.0019
    126  CD1       -9.5450   49.3960  107.8970 C.3   267  LEU267      0.0001
    127  CD2       -7.9350   47.8430  109.0000 C.3   267  LEU267      0.0001
    128  N         -3.9130   50.9720  112.5560 N.3   269  LYS269     -0.1231
    129  CA        -2.4890   50.8410  112.2890 C.3   269  LYS269      0.1693
    130  C         -2.1940   50.4610  110.8310 C.2   269  LYS269      0.2592
    131  O         -3.0290   50.6990  109.9430 O.2   269  LYS269     -0.2718
    132  CB        -1.9660   49.7580  113.2200 C.3   269  LYS269      0.0285
    133  CG        -1.1820   50.2710  114.3810 C.3   269  LYS269      0.0035
    134  CD        -1.3650   49.4610  115.6640 C.3   269  LYS269      0.0206
    135  CE        -0.3300   49.9990  116.6560 C.3   269  LYS269      0.1093
    136  NZ        -0.7090   49.8340  118.0770 N.3   269  LYS269     -0.1314
    137  N         -1.0150   49.8330  110.6730 N.am  270  ASP270     -0.1960
    138  CA        -0.7070   49.4150  109.3080 C.3   270  ASP270      0.1840
    139  C         -0.9050   47.8980  109.1630 C.2   270  ASP270      0.2622
    140  O          0.0770   47.1820  109.3180 O.2   270  ASP270     -0.2715
    141  CB         0.7250   49.8000  108.9760 C.3   270  ASP270      0.1450
    142  CG         1.1890   49.2980  107.6080 C.2   270  ASP270      0.3671
    143  OD1        0.4490   48.7120  106.8320 O.co2 270  ASP270     -0.2456
    144  OD2        2.3660   49.5540  107.3080 O.co2 270  ASP270     -0.2456
    145  N         -2.0690   47.3620  108.9460 N.am  271  VAL271     -0.1964
    146  CA        -2.3230   45.9500  108.6980 C.3   271  VAL271      0.1712
    147  C         -1.4240   45.3830  107.6130 C.2   271  VAL271      0.2458
    148  O         -0.7650   44.4150  108.0670 O.2   271  VAL271     -0.2730
    149  CB        -3.8260   45.6790  108.4470 C.3   271  VAL271      0.0289
    150  CG1       -4.2040   44.2580  108.0890 C.3   271  VAL271      0.0023
    151  CG2       -4.5990   46.0850  109.7200 C.3   271  VAL271      0.0023
    152  N         -1.3220   45.8890  106.3850 N.am  272  PRO272     -0.2727
    153  CA        -0.4350   45.2320  105.4130 C.3   272  PRO272      0.1402
    154  C          0.9230   45.0390  106.0170 C.2   272  PRO272      0.2269
    155  O          1.5470   43.9730  105.9240 O.2   272  PRO272     -0.2865
    156  CB        -0.4980   46.1590  104.2020 C.3   272  PRO272      0.0296
    157  CG        -1.8880   46.7370  104.2860 C.3   272  PRO272      0.0237
    158  CD        -2.0940   46.9730  105.7850 C.3   272  PRO272      0.0939
    159  N         -5.7620   34.9070  103.5690 N.3   303  HIS303     -0.1297
    160  CA        -7.0110   35.7210  103.5020 C.3   303  HIS303      0.1306
    161  C         -6.6900   37.0280  102.8010 C.3   303  HIS303      0.2013
    162  O         -5.8050   37.6870  103.3380 O.3   303  HIS303     -0.2188
    163  CB        -7.4730   35.8960  104.9620 C.3   303  HIS303      0.0691
    164  CG        -8.5860   36.8810  105.0230 C.ar  303  HIS303      0.0814
    165  ND1       -8.5400   38.1870  105.4500 N.ar  303  HIS303     -0.2268
    166  CD2       -9.8630   36.6420  104.6650 C.ar  303  HIS303      0.1154
    167  CE1       -9.7270   38.7360  105.3550 C.ar  303  HIS303      0.1986
    168  NE2      -10.5410   37.8250  104.8990 N.ar  303  HIS303     -0.2212
    169  N         -7.4640   40.2410  102.9430 N.3   305  GLY305     -0.1210
    170  CA        -7.9250   41.4440  103.6410 C.3   305  GLY305      0.1956
    171  C         -8.0590   42.6520  102.6990 C.2   305  GLY305      0.2612
    172  O         -9.1000   43.3310  102.7680 O.2   305  GLY305     -0.2717
    173  N         -7.0910   42.8340  101.8090 N.am  306  GLY306     -0.1942
    174  CA        -7.0400   43.8440  100.7680 C.3   306  GLY306      0.1998
    175  C         -5.8520   43.4340   99.8740 C.2   306  GLY306      0.2481
    176  O         -5.0950   42.6670  100.4500 O.2   306  GLY306     -0.2729
    177  N         -5.7490   43.9450   98.6720 N.am  307  PRO307     -0.2715
    178  CA        -4.6190   43.5750   97.8140 C.3   307  PRO307      0.1536
    179  C         -3.2850   43.9090   98.4320 C.2   307  PRO307      0.2598
    180  O         -2.2220   43.2440   98.2470 O.2   307  PRO307     -0.2715
    181  CB        -4.9350   44.3740   96.5330 C.3   307  PRO307      0.0310
    182  CG        -5.7890   45.5270   96.9580 C.3   307  PRO307      0.0237
    183  CD        -6.6750   44.9070   98.0560 C.3   307  PRO307      0.0939
    184  N         -3.2100   44.9710   99.2730 N.am  308  ALA308     -0.1964
    185  CA        -1.9340   45.4220   99.7940 C.3   308  ALA308      0.1728
    186  C         -1.2790   44.4460  100.7500 C.2   308  ALA308      0.2616
    187  O         -0.0900   44.3650  101.0360 O.2   308  ALA308     -0.2715
    188  CB        -1.9440   46.7680  100.5270 C.3   308  ALA308      0.0334
    189  N         -2.1210   43.7220  101.5200 N.am  309  ILE309     -0.1977
    190  CA        -1.5800   42.6590  102.3830 C.3   309  ILE309      0.1596
    191  C         -0.8940   41.5890  101.4900 C.2   309  ILE309      0.2287
    192  O          0.2020   41.1160  101.8640 O.2   309  ILE309     -0.2864
    193  CB        -2.7070   41.8710  103.0900 C.3   309  ILE309      0.0276
    194  CG1       -3.5330   42.8640  103.9010 C.3   309  ILE309      0.0022
    195  CG2       -2.1570   40.7430  103.9590 C.3   309  ILE309      0.0022
    196  CD1       -4.4050   42.3820  105.0290 C.3   309  ILE309      0.0001
    197  N          0.3190   42.0030   98.3570 N.3   311  ASP311     -0.1239
    198  CA         1.5240   42.4270   97.6380 C.3   311  ASP311      0.1674
    199  C          2.7170   42.4830   98.5780 C.2   311  ASP311      0.2266
    200  O          3.8740   42.2370   98.2930 O.2   311  ASP311     -0.2867
    201  CB         1.3990   43.8480   97.0230 C.3   311  ASP311      0.1410
    202  CG         0.1670   43.8500   96.1060 C.2   311  ASP311      0.3668
    203  OD1       -0.1460   42.7710   95.5860 O.co2 311  ASP311     -0.2456
    204  OD2       -0.3290   44.9870   96.0590 O.co2 311  ASP311     -0.2456
    205  N        -13.6240   40.5940   99.6540 N.3   336  ASN336     -0.1240
    206  CA       -13.2460   40.0580  100.9720 C.3   336  ASN336      0.1653
    207  C        -14.4860   39.5960  101.7510 C.2   336  ASN336      0.2266
    208  O        -15.1860   40.4190  102.4290 O.2   336  ASN336     -0.2867
    209  CB       -12.6070   41.2220  101.7580 C.3   336  ASN336      0.1155
    210  CG       -12.2320   40.9300  103.1690 C.2   336  ASN336      0.2627
    211  OD1      -12.5650   39.9390  103.8210 O.2   336  ASN336     -0.2716
    212  ND2      -11.4150   41.7070  103.9100 N.am  336  ASN336     -0.0877
@<TRIPOS>BOND
     1    37    36    1
     2    36    35    1
     3    29    30    1
     4    16    15    1
     5    16    17    1
     6    35    34    1
     7    30    31    1
     8    30    33    1
     9    10    11    1
    10    11    12    1
    11    11    14    1
    12    15    14    1
    13    19    18    1
    14    31    32    2
    15    31    38   am
    16    34    33    1
    17    13    12    2
    18    43    42    1
    19    38    39    1
    20    17    18    2
    21    40    39    1
    22    40    41    2
    23    12    21   am
    24    18    20    1
    25    39    42    1
    26   203   202   ar
    27    21    22    1
    28    23    24    1
    29    23    22    1
    30   204   202   ar
    31   202   201    1
    32   181   182    1
    33   181   178    1
    34     1     2    1
    35    22    25    1
    36   182   183    1
    37   201   198    1
    38     4     3    1
    39     3     2    1
    40     2     5    1
    41   198   197    1
    42   198   199    1
    43   178   179    1
    44   178   177    1
    45    80    79    2
    46    25    26    1
    47   183   177    1
    48   180   179    2
    49   200   199    2
    50   179   184   am
    51   177   175   am
    52     5     6    1
    53    79    78    1
    54    79    82   am
    55    81    78    1
    56    26    27    1
    57    78    77    1
    58     6     7    1
    59    89    87    1
    60   184   185    1
    61   205   206    1
    62   185   188    1
    63   185   186    1
    64    85    84    2
    65   175   176    2
    66   175   174    1
    67    83    82    1
    68    83    84    1
    69    83    86    1
    70    84    90   am
    71    27    28    1
    72     7     8    1
    73     9     8    1
    74    87    86    1
    75    87    88    1
    76    93    92    2
    77   186   187    2
    78   186   189   am
    79   174   173    1
    80   206   207    1
    81   206   209    1
    82    92    91    1
    83    90    91    1
    84   191   192    2
    85   191   190    1
    86   189   190    1
    87   207   208    2
    88   209   210    1
    89   173   171   am
    90    91    94    1
    91    69    68    2
    92   190   193    1
    93   171   172    2
    94   171   170    1
    95   161   162    1
    96   161   160    1
    97   169   170    1
    98    76    75    2
    99    67    68    1
   100    67    66    1
   101    67    70    1
   102   193   194    1
   103   193   195    1
   104    68    73   am
   105   210   211    2
   106   210   212   am
   107    94    95    1
   108    75    74    1
   109   160   159    1
   110   160   163    1
   111    72    70    1
   112    71    70    1
   113   194   196    1
   114    57    55    1
   115   156   157    1
   116   156   153    1
   117   157   158    1
   118    95    97   ar
   119    95    96   ar
   120    73    74    1
   121   166   168   ar
   122   166   164   ar
   123    97    99   ar
   124   168   167   ar
   125    96    98   ar
   126   163   164    1
   127   164   165   ar
   128    56    55    1
   129    53    52    2
   130    55    54    1
   131   167   165   ar
   132   153   154    1
   133   153   152    1
   134    54    51    1
   135   158   152    1
   136    99   100   ar
   137   155   154    2
   138    98   100   ar
   139    51    52    1
   140    51    50    1
   141    52    58   am
   142   152   147   am
   143   143   142   ar
   144    61    60    2
   145   144   142   ar
   146    58    59    1
   147    60    59    1
   148   142   141    1
   149   147   148    2
   150   147   146    1
   151    59    62    1
   152   126   125    1
   153   150   149    1
   154    49    48    1
   155    47    46    2
   156    48    45    1
   157   149   146    1
   158   149   151    1
   159   146   145    1
   160   145   139   am
   161   141   138    1
   162   127   125    1
   163    62    63    1
   164   139   138    1
   165   139   140    2
   166    45    46    1
   167    45    44    1
   168   125   124    1
   169   138   137    1
   170   124   121    1
   171   131   130    2
   172    63    64   ar
   173    63    65   ar
   174   116   118   ar
   175   116   114   ar
   176   118   119   ar
   177   137   130   am
   178   113   114    1
   179   113   110    1
   180   114   115   ar
   181   108   106    1
   182   130   129    1
   183   119   117   ar
   184   115   117   ar
   185   121   120    1
   186   121   122    1
   187   123   122    2
   188   106   105    1
   189   112   111    2
   190   110   111    1
   191   110   109    1
   192   129   128    1
   193   129   132    1
   194   107   105    1
   195   105   102    1
   196   132   133    1
   197   102   101    1
   198   102   103    1
   199   133   134    1
   200   103   104    2
   201   134   135    1
   202   135   136    1
