@<TRIPOS>MOLECULE
tmp/1ci0A01.pdb
 146 141 0 0 0
SMALL
GASTEIGER

@<TRIPOS>ATOM
      1  N        -31.4750  -11.0760   -9.4680 N.3    31  LEU31      -0.1245
      2  CA       -30.5610  -10.1000  -10.0450 C.3    31  LEU31       0.1561
      3  C        -30.1880   -9.0670   -8.9870 C.2    31  LEU31       0.2260
      4  O        -30.4540   -7.8790   -9.1440 O.2    31  LEU31      -0.2867
      5  CB       -31.2320   -9.4250  -11.2520 C.3    31  LEU31       0.0270
      6  CG       -30.3620   -8.6730  -12.2680 C.3    31  LEU31       0.0019
      7  CD1      -29.1430   -9.4970  -12.6920 C.3    31  LEU31       0.0001
      8  CD2      -31.2200   -8.3630  -13.4680 C.3    31  LEU31       0.0001
      9  N        -28.5350   -5.5000   -9.7210 N.3    34  ALA34      -0.1245
     10  CA       -29.3190   -4.5010  -10.4350 C.3    34  ALA34       0.1562
     11  C        -29.5350   -3.3090   -9.5140 C.2    34  ALA34       0.2260
     12  O        -29.8840   -3.4760   -8.3440 O.2    34  ALA34      -0.2867
     13  CB       -30.6580   -5.0840  -10.8510 C.3    34  ALA34       0.0290
     14  N        -32.2750    9.1370  -14.5210 N.3    49  SER49      -0.1202
     15  CA       -32.0150    7.8730  -13.8460 C.3    49  SER49       0.2020
     16  C        -32.2300    6.7070  -14.7950 C.2    49  SER49       0.2619
     17  O        -33.0320    6.7920  -15.7310 O.2    49  SER49      -0.2717
     18  CB       -32.9430    7.7080  -12.6520 C.3    49  SER49       0.2103
     19  OG       -34.1610    7.1260  -13.0650 O.3    49  SER49      -0.2182
     20  N        -31.5090    5.6180  -14.5450 N.am   50  ARG50      -0.1965
     21  CA       -31.6050    4.4160  -15.3640 C.3    50  ARG50       0.1729
     22  C        -31.1130    3.2140  -14.5760 C.2    50  ARG50       0.2616
     23  O        -30.4420    3.3590  -13.5480 O.2    50  ARG50      -0.2715
     24  CB       -30.7450    4.5590  -16.6060 C.3    50  ARG50       0.0348
     25  CG       -29.2780    4.3750  -16.3190 C.3    50  ARG50       0.0492
     26  CD       -28.5570    5.6630  -16.5690 C.3    50  ARG50       0.2205
     27  NE       -28.8250    6.6640  -15.5410 N.pl3  50  ARG50      -0.0865
     28  CZ       -28.8400    7.9780  -15.7620 C.cat  50  ARG50       0.5346
     29  NH1      -28.6070    8.4760  -16.9720 N.pl3  50  ARG50       0.1354
     30  NH2      -29.0490    8.8000  -14.7590 N.pl3  50  ARG50       0.1354
     31  N        -31.4260    2.0230  -15.0700 N.am   51  ILE51      -0.1963
     32  CA       -31.0090    0.8040  -14.4020 C.3    51  ILE51       0.1727
     33  C        -29.6420    0.3390  -14.8840 C.2    51  ILE51       0.2616
     34  O        -29.3490    0.3690  -16.0820 O.2    51  ILE51      -0.2715
     35  CB       -32.0030   -0.3300  -14.6500 C.3    51  ILE51       0.0290
     36  CG1      -33.3710    0.0490  -14.0960 C.3    51  ILE51       0.0022
     37  CG2      -31.4960   -1.6040  -14.0060 C.3    51  ILE51       0.0023
     38  CD1      -33.4380    0.0830  -12.5970 C.3    51  ILE51       0.0001
     39  N        -28.8030   -0.0880  -13.9500 N.am   52  LEU52      -0.1963
     40  CA       -27.4810   -0.5890  -14.2920 C.3    52  LEU52       0.1728
     41  C        -27.1620   -1.7300  -13.3400 C.2    52  LEU52       0.2616
     42  O        -27.9550   -2.0500  -12.4400 O.2    52  LEU52      -0.2715
     43  CB       -26.4130    0.4950  -14.1490 C.3    52  LEU52       0.0311
     44  CG       -26.5600    1.8040  -14.9240 C.3    52  LEU52       0.0022
     45  CD1      -25.4370    2.7540  -14.5180 C.3    52  LEU52       0.0001
     46  CD2      -26.5270    1.5270  -16.4210 C.3    52  LEU52       0.0001
     47  N        -26.0030   -2.3460  -13.5410 N.am   53  LEU53      -0.1977
     48  CA       -25.5850   -3.4440  -12.6960 C.3    53  LEU53       0.1596
     49  C        -24.4390   -3.0030  -11.8280 C.2    53  LEU53       0.2287
     50  O        -23.5190   -2.3500  -12.3040 O.2    53  LEU53      -0.2864
     51  CB       -25.1240   -4.6180  -13.5440 C.3    53  LEU53       0.0297
     52  CG       -26.1340   -5.1970  -14.5220 C.3    53  LEU53       0.0022
     53  CD1      -25.4660   -6.3100  -15.2820 C.3    53  LEU53       0.0001
     54  CD2      -27.3570   -5.7020  -13.7760 C.3    53  LEU53       0.0001
     55  N        -19.7650   -0.2830  -14.2460 N.3    65  TYR65      -0.1227
     56  CA       -19.1770   -0.1290  -15.5630 C.3    65  TYR65       0.1736
     57  C        -20.2270    0.1300  -16.6370 C.2    65  TYR65       0.2596
     58  O        -21.2760   -0.5210  -16.6840 O.2    65  TYR65      -0.2718
     59  CB       -18.3400   -1.3650  -15.9030 C.3    65  TYR65       0.0548
     60  CG       -17.1180   -1.4970  -15.0170 C.ar   65  TYR65      -0.0200
     61  CD1      -17.2550   -1.7870  -13.6610 C.ar   65  TYR65      -0.0009
     62  CD2      -15.8330   -1.2820  -15.5200 C.ar   65  TYR65      -0.0009
     63  CE1      -16.1570   -1.8540  -12.8270 C.ar   65  TYR65       0.0417
     64  CE2      -14.7240   -1.3470  -14.6960 C.ar   65  TYR65       0.0417
     65  CZ       -14.8970   -1.6330  -13.3450 C.ar   65  TYR65       0.1957
     66  OH       -13.8230   -1.6990  -12.4870 O.3    65  TYR65      -0.2866
     67  N        -19.9210    1.1000  -17.4940 N.am   66  SER66      -0.1938
     68  CA       -20.7990    1.5050  -18.5790 C.3    66  SER66       0.2055
     69  C        -20.0680    2.5260  -19.4760 C.2    66  SER66       0.2643
     70  O        -18.8370    2.6320  -19.4450 O.2    66  SER66      -0.2714
     71  CB       -22.0800    2.1050  -17.9730 C.3    66  SER66       0.2130
     72  OG       -22.5980    3.1730  -18.7470 O.3    66  SER66      -0.2179
     73  N        -20.8260    3.2580  -20.2840 N.am   67  ASN67      -0.1971
     74  CA       -20.2600    4.2850  -21.1470 C.3    67  ASN67       0.1688
     75  C        -20.3340    5.5900  -20.3510 C.2    67  ASN67       0.2292
     76  O        -21.4210    6.1270  -20.1350 O.2    67  ASN67      -0.2864
     77  CB       -21.0830    4.3900  -22.4310 C.3    67  ASN67       0.1181
     78  CG       -20.6640    5.5530  -23.3000 C.2    67  ASN67       0.2629
     79  OD1      -20.2970    6.6160  -22.7990 O.2    67  ASN67      -0.2716
     80  ND2      -20.7180    5.3620  -24.6170 N.am   67  ASN67      -0.0877
     81  N        -22.7780    9.0540  -23.2080 N.3    71  SER71      -0.1202
     82  CA       -24.1390    8.8380  -22.7280 C.3    71  SER71       0.2020
     83  C        -24.6680    9.9970  -21.9030 C.2    71  SER71       0.2619
     84  O        -23.9160   10.9010  -21.5280 O.2    71  SER71      -0.2717
     85  CB       -24.2060    7.5510  -21.9110 C.3    71  SER71       0.2103
     86  OG       -23.5140    7.6970  -20.6870 O.3    71  SER71      -0.2182
     87  N        -25.9720    9.9660  -21.6340 N.am   72  ARG72      -0.1965
     88  CA       -26.6330   10.9950  -20.8460 C.3    72  ARG72       0.1729
     89  C        -26.0080   11.0470  -19.4490 C.2    72  ARG72       0.2616
     90  O        -25.6270   12.1150  -18.9660 O.2    72  ARG72      -0.2715
     91  CB       -28.1310   10.6920  -20.7640 C.3    72  ARG72       0.0348
     92  CG       -28.8540   11.3190  -19.6010 C.3    72  ARG72       0.0492
     93  CD       -29.2280   12.7440  -19.8750 C.3    72  ARG72       0.2205
     94  NE       -30.6640   12.8950  -20.1060 N.pl3  72  ARG72      -0.0865
     95  CZ       -31.4380   13.7990  -19.4980 C.cat  72  ARG72       0.5346
     96  NH1      -30.9180   14.6510  -18.6070 N.pl3  72  ARG72       0.1354
     97  NH2      -32.7320   13.8640  -19.7960 N.pl3  72  ARG72       0.1354
     98  N        -25.8780    9.8930  -18.8060 N.am   73  LYS73      -0.1977
     99  CA       -25.3010    9.8500  -17.4690 C.3    73  LYS73       0.1596
    100  C        -23.8860   10.4440  -17.4380 C.2    73  LYS73       0.2287
    101  O        -23.4720   11.0280  -16.4280 O.2    73  LYS73      -0.2864
    102  CB       -25.2840    8.4090  -16.9370 C.3    73  LYS73       0.0298
    103  CG       -24.8100    7.3690  -17.9270 C.3    73  LYS73       0.0038
    104  CD       -24.5530    6.0530  -17.2340 C.3    73  LYS73       0.0206
    105  CE       -25.3090    4.9260  -17.9080 C.3    73  LYS73       0.1093
    106  NZ       -24.7560    4.6270  -19.2510 N.3    73  LYS73      -0.1314
    107  N        -15.2480   -9.3110  -20.7600 N.3   117  ARG117     -0.1245
    108  CA       -16.5540   -9.2780  -21.4190 C.3   117  ARG117      0.1563
    109  C        -16.5490  -10.1130  -22.7060 C.2   117  ARG117      0.2260
    110  O        -15.5220  -10.2310  -23.3750 O.2   117  ARG117     -0.2867
    111  CB       -16.9420   -7.8290  -21.7330 C.3   117  ARG117      0.0307
    112  CG       -18.3680   -7.4550  -21.3590 C.3   117  ARG117      0.0489
    113  CD       -18.7030   -6.0350  -21.8220 C.3   117  ARG117      0.2205
    114  NE       -20.1110   -5.6910  -21.6160 N.pl3 117  ARG117     -0.0865
    115  CZ       -20.6630   -4.5220  -21.9310 C.cat 117  ARG117      0.5346
    116  NH1      -19.9310   -3.5640  -22.4750 N.pl3 117  ARG117      0.1354
    117  NH2      -21.9540   -4.3150  -21.7000 N.pl3 117  ARG117      0.1354
    118  N        -23.7770    4.8510  -27.1840 N.3   130  GLN130     -0.1231
    119  CA       -24.8380    4.9390  -26.1860 C.3   130  GLN130      0.1698
    120  C        -25.5520    6.2790  -26.0440 C.2   130  GLN130      0.2592
    121  O        -24.9140    7.3220  -25.8810 O.2   130  GLN130     -0.2718
    122  CB       -24.3060    4.5130  -24.8160 C.3   130  GLN130      0.0381
    123  CG       -25.3780    4.4720  -23.7510 C.3   130  GLN130      0.0905
    124  CD       -25.0020    3.5960  -22.5870 C.2   130  GLN130      0.2608
    125  OE1      -24.2220    3.9930  -21.7260 O.2   130  GLN130     -0.2717
    126  NE2      -25.5550    2.3940  -22.5490 N.am  130  GLN130     -0.0878
    127  N        -26.8830    6.2190  -26.0900 N.am  131  SER131     -0.1952
    128  CA       -27.7500    7.3870  -25.9620 C.3   131  SER131      0.1924
    129  C        -27.7780    8.3400  -27.1570 C.2   131  SER131      0.2314
    130  O        -28.5700    9.2840  -27.1810 O.2   131  SER131     -0.2863
    131  CB       -27.3930    8.1540  -24.6960 C.3   131  SER131      0.2116
    132  OG       -27.3300    7.2530  -23.6100 O.3   131  SER131     -0.2180
    133  N        -15.7880    3.9660  -22.6460 N.3   163  TRP163     -0.1241
    134  CA       -16.2710    2.8710  -21.8200 C.3   163  TRP163      0.1605
    135  C        -15.2940    2.6640  -20.6780 C.2   163  TRP163      0.2264
    136  O        -14.0930    2.8960  -20.8210 O.2   163  TRP163     -0.2867
    137  CB       -16.3780    1.5710  -22.6270 C.3   163  TRP163      0.0550
    138  CG       -17.0710    0.4530  -21.8730 C.ar  163  TRP163      0.0003
    139  CD1      -18.4010    0.1240  -21.9300 C.ar  163  TRP163      0.0946
    140  CD2      -16.4780   -0.4500  -20.9230 C.ar  163  TRP163      0.0152
    141  NE1      -18.6710   -0.9220  -21.0740 N.ar  163  TRP163     -0.2442
    142  CE2      -17.5110   -1.2920  -20.4440 C.ar  163  TRP163      0.0810
    143  CE3      -15.1770   -0.6280  -20.4280 C.ar  163  TRP163      0.0012
    144  CZ2      -17.2820   -2.2940  -19.4970 C.ar  163  TRP163      0.0191
    145  CZ3      -14.9510   -1.6250  -19.4830 C.ar  163  TRP163      0.0001
    146  CH2      -16.0020   -2.4440  -19.0280 C.ar  163  TRP163      0.0015
@<TRIPOS>BOND
     1   118   119    1
     2   130   129    2
     3   129   128    1
     4   119   120    1
     5   119   122    1
     6   127   120   am
     7   127   128    1
     8   120   121    2
     9   128   131    1
    10   122   123    1
    11   131   132    1
    12    80    78   am
    13   123   124    1
    14   110   109    2
    15    78    79    2
    16    78    77    1
    17    81    82    1
    18    82    85    1
    19    82    83    1
    20   109   108    1
    21   133   134    1
    22   137   138    1
    23   137   134    1
    24   124   126   am
    25   124   125    2
    26   116   115    1
    27    77    74    1
    28   115   117    1
    29   115   114    2
    30   139   138   ar
    31   139   141   ar
    32    85    86    1
    33    83    87   am
    34    83    84    2
    35   138   140   ar
    36   113   114    1
    37   113   112    1
    38   134   135    1
    39   111   108    1
    40   111   112    1
    41    87    88    1
    42   108   107    1
    43    74    75    1
    44    74    73    1
    45   141   142   ar
    46   140   142   ar
    47   140   143   ar
    48    88    91    1
    49    88    89    1
    50   136   135    2
    51    91    92    1
    52   142   144   ar
    53   143   145   ar
    54    75    76    2
    55    73    69   am
    56    94    93    1
    57    94    95    2
    58    93    92    1
    59    97    95    1
    60    95    96    1
    61   144   146   ar
    62   145   146   ar
    63    69    70    2
    64    69    68    1
    65    89    90    2
    66    89    98   am
    67   106   105    1
    68    98    99    1
    69    72    71    1
    70    68    71    1
    71    68    67    1
    72   103   104    1
    73   103   102    1
    74   105   104    1
    75    67    57   am
    76    99   100    1
    77    99   102    1
    78   100   101    2
    79    29    28    1
    80    58    57    2
    81    57    56    1
    82    24    25    1
    83    24    21    1
    84    26    25    1
    85    26    27    1
    86    46    44    1
    87    34    33    2
    88    59    56    1
    89    59    60    1
    90    28    27    2
    91    28    30    1
    92    17    16    2
    93    56    55    1
    94    62    60   ar
    95    62    64   ar
    96    21    22    1
    97    21    20    1
    98    53    52    1
    99    31    22   am
   100    31    32    1
   101    60    61   ar
   102    44    45    1
   103    44    43    1
   104    33    32    1
   105    33    39   am
   106    16    20   am
   107    16    15    1
   108    64    65   ar
   109    35    32    1
   110    35    36    1
   111    35    37    1
   112    22    23    2
   113    52    54    1
   114    52    51    1
   115    14    15    1
   116    40    43    1
   117    40    39    1
   118    40    41    1
   119    36    38    1
   120    15    18    1
   121    61    63   ar
   122    51    48    1
   123    47    41   am
   124    47    48    1
   125     8     6    1
   126    65    63   ar
   127    65    66    1
   128    41    42    2
   129    19    18    1
   130    48    49    1
   131     7     6    1
   132    50    49    2
   133     6     5    1
   134     5     2    1
   135    13    10    1
   136    10     9    1
   137    10    11    1
   138     2     1    1
   139     2     3    1
   140    11    12    2
   141     4     3    2
