@<TRIPOS>MOLECULE
tmp/1ci7A01.pdb
 207 200 0 0 0
SMALL
GASTEIGER

@<TRIPOS>ATOM
      1  N        100.3570  -22.1870   61.9920 N.3    24  ARG24      -0.1231
      2  CA       100.5030  -23.6330   62.1540 C.3    24  ARG24       0.1694
      3  C        101.9170  -24.0010   62.5770 C.2    24  ARG24       0.2592
      4  O        102.1210  -24.7860   63.5010 O.2    24  ARG24      -0.2718
      5  CB       100.1450  -24.3390   60.8400 C.3    24  ARG24       0.0321
      6  CG       100.8820  -25.6420   60.5660 C.3    24  ARG24       0.0489
      7  CD       102.0000  -25.4030   59.5690 C.3    24  ARG24       0.2205
      8  NE       102.8120  -26.5950   59.3670 N.pl3  24  ARG24      -0.0865
      9  CZ       103.9170  -26.6300   58.6290 C.cat  24  ARG24       0.5346
     10  NH1      104.3490  -25.5340   58.0140 N.pl3  24  ARG24       0.1354
     11  NH2      104.5960  -27.7650   58.5190 N.pl3  24  ARG24       0.1354
     12  N        102.8960  -23.4370   61.8840 N.am   25  THR25      -0.1953
     13  CA       104.2870  -23.6900   62.2060 C.3    25  THR25       0.1897
     14  C        104.4960  -23.3020   63.6690 C.2    25  THR25       0.2313
     15  O        105.4520  -23.7370   64.3110 O.2    25  THR25      -0.2863
     16  CB       105.2190  -22.8630   61.2820 C.3    25  THR25       0.1794
     17  OG1      105.0900  -21.4680   61.5710 O.3    25  THR25      -0.2208
     18  CG2      104.8460  -23.0880   59.8220 C.3    25  THR25       0.0378
     19  N        116.8890   -5.5830   49.8670 N.3    53  LYS53      -0.1231
     20  CA       117.4550   -6.6150   50.7420 C.3    53  LYS53       0.1693
     21  C        118.1320   -7.7210   49.9320 C.2    53  LYS53       0.2592
     22  O        117.5380   -8.2990   49.0230 O.2    53  LYS53      -0.2718
     23  CB       116.3860   -7.2100   51.6480 C.3    53  LYS53       0.0285
     24  CG       116.8770   -7.4290   53.0670 C.3    53  LYS53       0.0035
     25  CD       115.8280   -8.1090   53.9430 C.3    53  LYS53       0.0206
     26  CE       115.9400   -9.6080   53.8510 C.3    53  LYS53       0.1093
     27  NZ       117.3140  -10.0260   54.2410 N.3    53  LYS53      -0.1314
     28  N        119.3870   -8.0060   50.2590 N.am   54  ARG54      -0.1966
     29  CA       120.1430   -9.0240   49.5450 C.3    54  ARG54       0.1729
     30  C        119.2910  -10.2700   49.4270 C.2    54  ARG54       0.2616
     31  O        118.6910  -10.7060   50.4030 O.2    54  ARG54      -0.2715
     32  CB       121.4360   -9.3480   50.2990 C.3    54  ARG54       0.0348
     33  CG       122.3940  -10.2640   49.5580 C.3    54  ARG54       0.0492
     34  CD       123.0500   -9.5560   48.3870 C.3    54  ARG54       0.2205
     35  NE       123.4440  -10.5040   47.3510 N.pl3  54  ARG54      -0.0865
     36  CZ       124.0700  -10.1690   46.2310 C.cat  54  ARG54       0.5346
     37  NH1      124.3820   -8.8980   46.0010 N.pl3  54  ARG54       0.1354
     38  NH2      124.3750  -11.1050   45.3380 N.pl3  54  ARG54       0.1354
     39  N        119.2100  -10.8230   48.2230 N.am   55  VAL55      -0.1963
     40  CA       118.4410  -12.0440   48.0120 C.3    55  VAL55       0.1727
     41  C        119.4060  -13.1700   47.6690 C.2    55  VAL55       0.2616
     42  O        120.3780  -12.9810   46.9350 O.2    55  VAL55      -0.2715
     43  CB       117.4310  -11.9000   46.8760 C.3    55  VAL55       0.0290
     44  CG1      116.6080  -13.1760   46.7470 C.3    55  VAL55       0.0023
     45  CG2      116.5400  -10.7000   47.1380 C.3    55  VAL55       0.0023
     46  N        119.1300  -14.3460   48.2030 N.am   56  PHE56      -0.1974
     47  CA       119.9840  -15.5020   47.9860 C.3    56  PHE56       0.1639
     48  C        119.9540  -16.0530   46.5460 C.2    56  PHE56       0.2290
     49  O        119.8590  -17.2650   46.3290 O.2    56  PHE56      -0.2864
     50  CB       119.5830  -16.5910   48.9760 C.3    56  PHE56       0.0560
     51  CG       120.6090  -17.6510   49.1480 C.ar   56  PHE56      -0.0200
     52  CD1      120.3130  -18.8030   49.8560 C.ar   56  PHE56      -0.0042
     53  CD2      121.8640  -17.5210   48.5660 C.ar   56  PHE56      -0.0042
     54  CE1      121.2500  -19.8200   49.9770 C.ar   56  PHE56      -0.0003
     55  CE2      122.8060  -18.5260   48.6800 C.ar   56  PHE56      -0.0003
     56  CZ       122.4980  -19.6820   49.3890 C.ar   56  PHE56      -0.0000
     57  N        118.5530  -24.1510   43.4620 N.3    63  GLU63      -0.1245
     58  CA       117.2940  -24.8410   43.7290 C.3    63  GLU63       0.1567
     59  C        116.4210  -25.0850   42.4910 C.2    63  GLU63       0.2260
     60  O        115.7310  -26.1060   42.4200 O.2    63  GLU63      -0.2867
     61  CB       116.4610  -24.0910   44.7680 C.3    63  GLU63       0.0388
     62  CG       115.3140  -24.9440   45.3260 C.3    63  GLU63       0.1160
     63  CD       114.2910  -24.1480   46.1100 C.2    63  GLU63       0.3649
     64  OE1      114.6020  -23.0080   46.5130 O.co2  63  GLU63      -0.2457
     65  OE2      113.1770  -24.6700   46.3380 O.co2  63  GLU63      -0.2457
     66  N        118.4310  -24.3840   52.7280 N.3    84  ILE84      -0.1231
     67  CA       117.0220  -24.0220   52.7490 C.3    84  ILE84       0.1692
     68  C        116.0310  -25.1750   52.9560 C.2    84  ILE84       0.2592
     69  O        114.8900  -24.9400   53.3370 O.2    84  ILE84      -0.2718
     70  CB       116.6680  -23.2440   51.4580 C.3    84  ILE84       0.0266
     71  CG1      116.6990  -24.1680   50.2390 C.3    84  ILE84       0.0019
     72  CG2      117.6900  -22.1330   51.2360 C.3    84  ILE84       0.0020
     73  CD1      116.4110  -23.4540   48.9240 C.3    84  ILE84       0.0001
     74  N        116.4530  -26.4120   52.7080 N.am   85  TRP85      -0.1976
     75  CA       115.5610  -27.5570   52.9040 C.3    85  TRP85       0.1640
     76  C        115.9900  -28.4600   54.0570 C.2    85  TRP85       0.2290
     77  O        115.2920  -29.4190   54.3900 O.2    85  TRP85      -0.2864
     78  CB       115.4570  -28.4040   51.6280 C.3    85  TRP85       0.0576
     79  CG       114.5780  -27.8140   50.5720 C.ar   85  TRP85       0.0006
     80  CD1      114.9700  -27.0920   49.4850 C.ar   85  TRP85       0.0946
     81  CD2      113.1450  -27.8720   50.5230 C.ar   85  TRP85       0.0152
     82  NE1      113.8740  -26.6940   48.7580 N.ar   85  TRP85      -0.2442
     83  CE2      112.7390  -27.1580   49.3720 C.ar   85  TRP85       0.0810
     84  CE3      112.1620  -28.4570   51.3450 C.ar   85  TRP85       0.0012
     85  CZ2      111.3870  -27.0120   49.0130 C.ar   85  TRP85       0.0191
     86  CZ3      110.8210  -28.3130   50.9940 C.ar   85  TRP85       0.0001
     87  CH2      110.4450  -27.5940   49.8320 C.ar   85  TRP85       0.0015
     88  N        112.7890  -28.8810   56.9590 N.3    88  ASN88      -0.1240
     89  CA       111.6560  -29.7350   56.6250 C.3    88  ASN88       0.1653
     90  C        112.0830  -31.1190   56.1800 C.2    88  ASN88       0.2266
     91  O        111.2600  -31.9140   55.7300 O.2    88  ASN88      -0.2867
     92  CB       110.8000  -29.1110   55.5220 C.3    88  ASN88       0.1155
     93  CG       110.4540  -27.6700   55.7980 C.2    88  ASN88       0.2627
     94  OD1      111.1780  -26.7590   55.3930 O.2    88  ASN88      -0.2716
     95  ND2      109.3480  -27.4520   56.4960 N.am   88  ASN88      -0.0877
     96  N        106.4320  -31.1820   52.9730 N.3   168  LEU168     -0.1245
     97  CA       105.6670  -29.9510   53.1250 C.3   168  LEU168      0.1561
     98  C        104.7970  -29.8180   51.8730 C.2   168  LEU168      0.2260
     99  O        105.2330  -30.1420   50.7690 O.2   168  LEU168     -0.2867
    100  CB       106.6260  -28.7560   53.2490 C.3   168  LEU168      0.0270
    101  CG       106.2000  -27.3990   53.8330 C.3   168  LEU168      0.0019
    102  CD1      107.4020  -26.4680   53.7940 C.3   168  LEU168      0.0001
    103  CD2      105.0380  -26.7910   53.0560 C.3   168  LEU168      0.0001
    104  N        104.0440  -24.9970   48.0820 N.3   171  CYS171     -0.1221
    105  CA       103.6570  -23.6540   48.5080 C.3   171  CYS171      0.1808
    106  C        103.3220  -22.8770   47.2410 C.2   171  CYS171      0.2601
    107  O        102.1890  -22.4590   47.0530 O.2   171  CYS171     -0.2717
    108  CB       104.8330  -23.0320   49.2380 C.3   171  CYS171      0.0970
    109  SG       104.7420  -21.7510   50.5870 S.3   171  CYS171     -0.0800
    110  N        104.3030  -22.6670   46.3740 N.am  172  HIS172     -0.1975
    111  CA       104.0210  -21.9970   45.1190 C.3   172  HIS172      0.1656
    112  C        103.5410  -23.1710   44.2530 C.2   172  HIS172      0.2291
    113  O        104.3000  -23.7430   43.4710 O.2   172  HIS172     -0.2864
    114  CB       105.2910  -21.3130   44.5670 C.3   172  HIS172      0.0771
    115  CG       106.4750  -22.2220   44.4020 C.ar  172  HIS172      0.0820
    116  ND1      106.6780  -22.9790   43.2710 N.ar  172  HIS172     -0.2267
    117  CD2      107.5380  -22.4580   45.2100 C.ar  172  HIS172      0.1154
    118  CE1      107.8200  -23.6420   43.3850 C.ar  172  HIS172      0.1986
    119  NE2      108.3590  -23.3460   44.5500 N.ar  172  HIS172     -0.2212
    120  N        105.1710  -15.8700   52.0490 N.3   197  ASP197     -0.1239
    121  CA       105.9030  -15.2800   53.1490 C.3   197  ASP197      0.1674
    122  C        106.6380  -14.0730   52.5890 C.2   197  ASP197      0.2266
    123  O        107.7830  -14.1800   52.1380 O.2   197  ASP197     -0.2867
    124  CB       106.9060  -16.2820   53.6990 C.3   197  ASP197      0.1410
    125  CG       107.7010  -15.7280   54.8570 C.2   197  ASP197      0.3668
    126  OD1      108.7200  -16.3550   55.2320 O.co2 197  ASP197     -0.2456
    127  OD2      107.3010  -14.6670   55.3920 O.co2 197  ASP197     -0.2456
    128  N        110.6550  -13.8930   53.4370 N.3   200  LEU200     -0.1231
    129  CA       111.6900  -14.5870   52.6750 C.3   200  LEU200      0.1693
    130  C        111.1180  -15.1220   51.3710 C.2   200  LEU200      0.2592
    131  O        111.6660  -14.8940   50.2920 O.2   200  LEU200     -0.2718
    132  CB       112.2390  -15.7720   53.4770 C.3   200  LEU200      0.0284
    133  CG       112.7130  -15.5620   54.9170 C.3   200  LEU200      0.0019
    134  CD1      113.1500  -16.9080   55.5020 C.3   200  LEU200      0.0001
    135  CD2      113.8620  -14.5650   54.9560 C.3   200  LEU200      0.0001
    136  N        110.0050  -15.8360   51.4970 N.am  201  GLY201     -0.1957
    137  CA       109.3540  -16.4590   50.3580 C.3   201  GLY201      0.1869
    138  C        109.2030  -15.6700   49.0820 C.2   201  GLY201      0.2309
    139  O        110.0310  -15.7700   48.1920 O.2   201  GLY201     -0.2863
    140  N        112.1920  -14.6850   46.9920 N.3   204  PHE204     -0.1227
    141  CA       112.8730  -15.8750   46.4910 C.3   204  PHE204      0.1736
    142  C        112.1360  -16.4850   45.2970 C.2   204  PHE204      0.2595
    143  O        112.7500  -16.9150   44.3250 O.2   204  PHE204     -0.2718
    144  CB       112.9460  -16.9030   47.6180 C.3   204  PHE204      0.0547
    145  CG       113.9070  -18.0220   47.3700 C.ar  204  PHE204     -0.0202
    146  CD1      115.2120  -17.9340   47.8140 C.ar  204  PHE204     -0.0042
    147  CD2      113.4890  -19.1920   46.7470 C.ar  204  PHE204     -0.0042
    148  CE1      116.0860  -18.9980   47.6500 C.ar  204  PHE204     -0.0003
    149  CE2      114.3580  -20.2600   46.5790 C.ar  204  PHE204     -0.0003
    150  CZ       115.6560  -20.1650   47.0320 C.ar  204  PHE204     -0.0000
    151  N        110.8120  -16.5190   45.3890 N.am  205  ASN205     -0.1974
    152  CA       109.9600  -17.0850   44.3430 C.3   205  ASN205      0.1688
    153  C        109.8360  -16.1930   43.0970 C.2   205  ASN205      0.2292
    154  O        109.6050  -16.6940   41.9960 O.2   205  ASN205     -0.2864
    155  CB       108.5660  -17.3680   44.9230 C.3   205  ASN205      0.1181
    156  CG       108.6040  -18.3520   46.0870 C.2   205  ASN205      0.2629
    157  OD1      107.7340  -18.3360   46.9600 O.2   205  ASN205     -0.2716
    158  ND2      109.6090  -19.2200   46.0940 N.am  205  ASN205     -0.0877
    159  N        105.3310  -12.5310   59.4560 N.3   237  TYR237     -0.1241
    160  CA       105.6010  -13.0350   60.7980 C.3   237  TYR237      0.1605
    161  C        105.9460  -11.8650   61.7000 C.2   237  TYR237      0.2264
    162  O        106.9500  -11.1860   61.4860 O.2   237  TYR237     -0.2867
    163  CB       106.7580  -14.0330   60.7600 C.3   237  TYR237      0.0534
    164  CG       106.4030  -15.2970   60.0210 C.ar  237  TYR237     -0.0201
    165  CD1      105.6270  -16.2840   60.6300 C.ar  237  TYR237     -0.0009
    166  CD2      106.7550  -15.4710   58.6830 C.ar  237  TYR237     -0.0009
    167  CE1      105.2060  -17.4070   59.9320 C.ar  237  TYR237      0.0417
    168  CE2      106.3390  -16.5940   57.9750 C.ar  237  TYR237      0.0417
    169  CZ       105.5590  -17.5520   58.6070 C.ar  237  TYR237      0.1957
    170  OH       105.1110  -18.6490   57.9150 O.3   237  TYR237     -0.2866
    171  N        122.2780   -7.1860   53.9190 N.3   285  THR285     -0.1203
    172  CA       121.3870   -8.3150   54.2000 C.3   285  THR285      0.1994
    173  C        120.7290   -8.2760   55.5910 C.2   285  THR285      0.2617
    174  O        121.2420   -7.6430   56.5180 O.2   285  THR285     -0.2717
    175  CB       122.1440   -9.6530   54.0300 C.3   285  THR285      0.1784
    176  OG1      121.2930  -10.7380   54.4120 O.3   285  THR285     -0.2211
    177  CG2      123.4050   -9.6700   54.8840 C.3   285  THR285      0.0376
    178  N        119.5940   -8.9650   55.7260 N.am  286  ILE286     -0.1979
    179  CA       118.8420   -9.0010   56.9850 C.3   286  ILE286      0.1595
    180  C        118.4950  -10.4150   57.4830 C.2   286  ILE286      0.2287
    181  O        117.6180  -11.0740   56.9260 O.2   286  ILE286     -0.2864
    182  CB       117.5140   -8.1980   56.8500 C.3   286  ILE286      0.0276
    183  CG1      117.8200   -6.7210   56.5780 C.3   286  ILE286      0.0022
    184  CG2      116.6690   -8.3630   58.1090 C.3   286  ILE286      0.0022
    185  CD1      116.5920   -5.8470   56.4770 C.3   286  ILE286      0.0001
    186  N        113.2070  -18.3400   60.0120 N.3   290  MET290     -0.1230
    187  CA       112.1710  -19.1450   59.3520 C.3   290  MET290      0.1702
    188  C        110.9770  -19.5060   60.2470 C.2   290  MET290      0.2593
    189  O        110.4810  -18.6620   60.9950 O.2   290  MET290     -0.2718
    190  CB       112.8190  -20.4260   58.8060 C.3   290  MET290      0.0401
    191  CG       112.0360  -21.1570   57.7240 C.3   290  MET290      0.0596
    192  SD       112.7790  -22.7620   57.2960 S.3   290  MET290     -0.1393
    193  CE       114.1140  -22.2660   56.2160 C.3   290  MET290      0.0692
    194  N        110.5110  -20.7550   60.1520 N.am  291  SER291     -0.1938
    195  CA       109.3790  -21.2330   60.9570 C.3   291  SER291      0.2055
    196  C        108.7520  -22.5480   60.4610 C.2   291  SER291      0.2642
    197  O        107.5860  -22.5790   60.0810 O.2   291  SER291     -0.2714
    198  CB       108.2930  -20.1560   61.0340 C.3   291  SER291      0.2130
    199  OG       107.2410  -20.5610   61.8890 O.3   291  SER291     -0.2179
    200  N        109.5470  -23.6150   60.4870 N.am  292  ILE292     -0.1977
    201  CA       109.1940  -24.9880   60.0830 C.3   292  ILE292      0.1596
    202  C        107.7180  -25.3830   59.9350 C.2   292  ILE292      0.2287
    203  O        107.3370  -25.8400   58.8360 O.2   292  ILE292     -0.2864
    204  CB       109.8700  -25.9620   61.0660 C.3   292  ILE292      0.0276
    205  CG1      111.3360  -25.5580   61.2150 C.3   292  ILE292      0.0022
    206  CG2      109.7770  -27.3890   60.5750 C.3   292  ILE292      0.0022
    207  CD1      112.0230  -26.1540   62.4030 C.3   292  ILE292      0.0001
@<TRIPOS>BOND
     1   154   153    2
     2    60    59    2
     3    59    58    1
     4   153   152    1
     5   116   118   ar
     6   116   115   ar
     7   118   119   ar
     8    57    58    1
     9   113   112    2
    10    58    61    1
    11   112   111    1
    12   143   142    2
    13   152   155    1
    14   152   151    1
    15   115   114    1
    16   115   117   ar
    17   119   117   ar
    18   114   111    1
    19    61    62    1
    20   155   156    1
    21   111   110    1
    22   142   151   am
    23   142   141    1
    24    62    63    1
    25    38    36    1
    26    37    36    1
    27   156   158   am
    28   156   157    2
    29    63    65   ar
    30    63    64   ar
    31    36    35    2
    32    49    48    2
    33   110   106   am
    34   141   140    1
    35   141   144    1
    36    48    47    1
    37   149   147   ar
    38   149   150   ar
    39   147   145   ar
    40    44    43    1
    41    43    45    1
    42    43    40    1
    43    42    41    2
    44   150   148   ar
    45   107   106    2
    46   106   105    1
    47    35    34    1
    48   145   144    1
    49   145   146   ar
    50   148   146   ar
    51    41    40    1
    52    41    46   am
    53    47    46    1
    54    47    50    1
    55    40    39    1
    56   104   105    1
    57   139   138    2
    58    39    30   am
    59    34    33    1
    60   105   108    1
    61    53    55   ar
    62    53    51   ar
    63    55    56   ar
    64    82    83   ar
    65    82    80   ar
    66    73    71    1
    67    50    51    1
    68    85    83   ar
    69    85    87   ar
    70    22    21    2
    71   138   137    1
    72    51    52   ar
    73   108   109    1
    74    83    81   ar
    75    56    54   ar
    76    30    29    1
    77    30    31    2
    78    80    79   ar
    79    29    28    1
    80    29    32    1
    81    33    32    1
    82    87    86   ar
    83    52    54   ar
    84    19    20    1
    85    21    28   am
    86    21    20    1
    87    71    70    1
    88   131   130    2
    89   137   136    1
    90    81    79   ar
    91    81    84   ar
    92    79    78    1
    93    20    23    1
    94    99    98    2
    95    86    84   ar
    96    72    70    1
    97   130   136   am
    98   130   129    1
    99    70    67    1
   100    78    75    1
   101    23    24    1
   102    98    97    1
   103   120   121    1
   104   123   122    2
   105   122   121    1
   106   129   128    1
   107   129   132    1
   108    74    75    1
   109    74    68   am
   110    66    67    1
   111    67    68    1
   112    75    76    1
   113    68    69    2
   114    96    97    1
   115   103   101    1
   116    24    25    1
   117    97   100    1
   118   121   124    1
   119   100   101    1
   120   132   133    1
   121   124   125    1
   122   102   101    1
   123    26    25    1
   124    26    27    1
   125   171   172    1
   126   175   172    1
   127   175   176    1
   128   175   177    1
   129    76    77    2
   130   172   173    1
   131   125   126   ar
   132   125   127   ar
   133   133   135    1
   134   133   134    1
   135    94    93    2
   136    92    93    1
   137    92    89    1
   138   173   178   am
   139   173   174    2
   140   178   179    1
   141    91    90    2
   142    93    95   am
   143    90    89    1
   144   193   192    1
   145   185   183    1
   146   183   182    1
   147    89    88    1
   148   182   179    1
   149   182   184    1
   150   181   180    2
   151   179   180    1
   152   192   191    1
   153   191   190    1
   154   170   169    1
   155   168   169   ar
   156   168   166   ar
   157    10     9    1
   158    11     9    1
   159   169   167   ar
   160     9     8    2
   161   166   164   ar
   162   190   187    1
   163   203   202    2
   164   187   186    1
   165   187   188    1
   166     8     7    1
   167   159   160    1
   168     7     6    1
   169    18    16    1
   170   167   165   ar
   171   202   201    1
   172   164   165   ar
   173   164   163    1
   174   197   196    2
   175   201   200    1
   176   201   204    1
   177   194   188   am
   178   194   195    1
   179   188   189    2
   180   196   200   am
   181   196   195    1
   182     6     5    1
   183   206   204    1
   184   163   160    1
   185   160   161    1
   186     5     2    1
   187   195   198    1
   188   198   199    1
   189   204   205    1
   190   205   207    1
   191    16    17    1
   192    16    13    1
   193   162   161    2
   194    12    13    1
   195    12     3   am
   196     1     2    1
   197     2     3    1
   198    13    14    1
   199     3     4    2
   200    14    15    2
