@<TRIPOS>MOLECULE
tmp/1ci9B00.pdb
 131 122 0 0 0
SMALL
GASTEIGER

@<TRIPOS>ATOM
      1  N        -25.7850   41.7740  133.2810 N.3    60  ALA60      -0.1231
      2  CA       -26.0200   41.5930  134.7340 C.3    60  ALA60       0.1694
      3  C        -27.2750   40.7530  134.9180 C.2    60  ALA60       0.2592
      4  O        -27.4120   39.7910  134.1480 O.2    60  ALA60      -0.2718
      5  CB       -26.1000   42.9310  135.4280 C.3    60  ALA60       0.0304
      6  N        -28.1980   41.0920  135.8100 N.am   61  SER61      -0.1952
      7  CA       -29.3420   40.2350  136.1040 C.3    61  SER61       0.1924
      8  C        -30.4130   40.2380  135.0280 C.2    61  SER61       0.2314
      9  O        -31.3240   39.4110  135.1280 O.2    61  SER61      -0.2863
     10  CB       -30.0120   40.6060  137.4490 C.3    61  SER61       0.2116
     11  OG       -28.9940   40.5160  138.4500 O.3    61  SER61      -0.2180
     12  N        -30.9070   36.6700  134.0670 N.3    64  LYS64      -0.1245
     13  CA       -31.7440   35.6700  134.7390 C.3    64  LYS64       0.1561
     14  C        -32.9230   35.1910  133.9050 C.2    64  LYS64       0.2260
     15  O        -33.1490   33.9580  133.8320 O.2    64  LYS64      -0.2867
     16  CB       -32.2580   36.1810  136.1000 C.3    64  LYS64       0.0271
     17  CG       -31.1360   36.3500  137.1180 C.3    64  LYS64       0.0035
     18  CD       -31.6420   36.6330  138.5180 C.3    64  LYS64       0.0206
     19  CE       -30.5430   36.4730  139.5590 C.3    64  LYS64       0.1093
     20  NZ       -29.5730   37.6010  139.5710 N.3    64  LYS64      -0.1314
     21  N        -26.9700   36.6680  148.6030 N.3   119  TYR119     -0.1241
     22  CA       -26.0480   37.3390  147.7140 C.3   119  TYR119      0.1605
     23  C        -25.0740   38.1390  148.5740 C.2   119  TYR119      0.2264
     24  O        -25.5050   38.5830  149.6420 O.2   119  TYR119     -0.2867
     25  CB       -26.8040   38.2980  146.7960 C.3   119  TYR119      0.0534
     26  CG       -26.9710   37.9320  145.3480 C.ar  119  TYR119     -0.0201
     27  CD1      -25.9080   37.5540  144.5420 C.ar  119  TYR119     -0.0009
     28  CD2      -28.2300   37.9810  144.7740 C.ar  119  TYR119     -0.0009
     29  CE1      -26.1110   37.2300  143.2100 C.ar  119  TYR119      0.0417
     30  CE2      -28.4440   37.6620  143.4480 C.ar  119  TYR119      0.0417
     31  CZ       -27.3730   37.2850  142.6700 C.ar  119  TYR119      0.1957
     32  OH       -27.5930   36.9640  141.3460 O.3   119  TYR119     -0.2866
     33  N        -24.1510   41.0550  147.8410 N.3   121  LEU121     -0.1245
     34  CA       -24.5820   42.4530  147.8200 C.3   121  LEU121      0.1561
     35  C        -25.6120   42.7680  148.8840 C.2   121  LEU121      0.2260
     36  O        -25.8350   43.9430  149.1980 O.2   121  LEU121     -0.2867
     37  CB       -25.1130   42.7960  146.4240 C.3   121  LEU121      0.0270
     38  CG       -26.1950   41.8810  145.8480 C.3   121  LEU121      0.0019
     39  CD1      -27.5790   42.4120  146.1820 C.3   121  LEU121      0.0001
     40  CD2      -26.0090   41.7400  144.3480 C.3   121  LEU121      0.0001
     41  N        -20.7490   37.3080  143.6430 N.3   136  ASP136     -0.1239
     42  CA       -22.0660   37.5430  143.0740 C.3   136  ASP136      0.1674
     43  C        -22.0540   37.4570  141.5570 C.2   136  ASP136      0.2266
     44  O        -23.1100   37.5910  140.9230 O.2   136  ASP136     -0.2867
     45  CB       -22.6170   38.9120  143.4770 C.3   136  ASP136      0.1410
     46  CG       -22.9050   39.0130  144.9610 C.2   136  ASP136      0.3668
     47  OD1      -22.8670   37.9680  145.6450 O.co2 136  ASP136     -0.2456
     48  OD2      -23.1900   40.1280  145.4410 O.co2 136  ASP136     -0.2456
     49  N        -20.4470   39.3800  139.2420 N.3   138  ILE138     -0.1245
     50  CA       -20.2420   40.6250  138.4990 C.3   138  ILE138      0.1561
     51  C        -18.7720   41.0420  138.5320 C.2   138  ILE138      0.2260
     52  O        -18.2340   41.6930  137.6230 O.2   138  ILE138     -0.2867
     53  CB       -21.1520   41.7350  139.0390 C.3   138  ILE138      0.0252
     54  CG1      -22.6510   41.4340  138.8710 C.3   138  ILE138      0.0019
     55  CG2      -20.8630   43.1000  138.4320 C.3   138  ILE138      0.0019
     56  CD1      -23.1200   41.6560  137.4420 C.3   138  ILE138      0.0001
     57  N        -33.6180   37.5870  147.4900 N.3   167  TYR167     -0.1241
     58  CA       -32.9140   37.5410  146.1950 C.3   167  TYR167      0.1605
     59  C        -31.5690   36.8590  146.3440 C.2   167  TYR167      0.2264
     60  O        -30.8650   37.0070  147.3580 O.2   167  TYR167     -0.2867
     61  CB       -32.7990   38.9570  145.6350 C.3   167  TYR167      0.0534
     62  CG       -32.3960   39.1230  144.1890 C.ar  167  TYR167     -0.0201
     63  CD1      -33.0030   38.4240  143.1540 C.ar  167  TYR167     -0.0009
     64  CD2      -31.3870   40.0260  143.8630 C.ar  167  TYR167     -0.0009
     65  CE1      -32.6200   38.5980  141.8300 C.ar  167  TYR167      0.0417
     66  CE2      -30.9970   40.2040  142.5500 C.ar  167  TYR167      0.0417
     67  CZ       -31.6130   39.4920  141.5390 C.ar  167  TYR167      0.1957
     68  OH       -31.2110   39.6840  140.2340 O.3   167  TYR167     -0.2866
     69  N        -24.9400   50.4380  146.8910 N.3   235  LEU235     -0.1245
     70  CA       -26.3250   50.4580  146.4050 C.3   235  LEU235      0.1561
     71  C        -27.1740   51.4970  147.1300 C.2   235  LEU235      0.2260
     72  O        -26.8460   51.9260  148.2390 O.2   235  LEU235     -0.2867
     73  CB       -26.9340   49.0570  146.5280 C.3   235  LEU235      0.0270
     74  CG       -26.4910   48.1030  145.4070 C.3   235  LEU235      0.0019
     75  CD1      -26.4000   46.6810  145.9270 C.3   235  LEU235      0.0001
     76  CD2      -27.4460   48.1990  144.2290 C.3   235  LEU235      0.0001
     77  N        -31.6410   48.7970  148.8580 N.3   239  HIS239     -0.1241
     78  CA       -31.3640   47.9360  147.7070 C.3   239  HIS239      0.1621
     79  C        -30.2010   46.9950  147.9790 C.2   239  HIS239      0.2264
     80  O        -29.9140   46.1180  147.1640 O.2   239  HIS239     -0.2867
     81  CB       -31.1220   48.8120  146.4710 C.3   239  HIS239      0.0745
     82  CG       -32.4090   49.4420  146.0310 C.ar  239  HIS239      0.0817
     83  ND1      -33.0560   50.4020  146.7790 N.ar  239  HIS239     -0.2268
     84  CD2      -33.1910   49.2520  144.9420 C.ar  239  HIS239      0.1154
     85  CE1      -34.1640   50.7740  146.1680 C.ar  239  HIS239      0.1986
     86  NE2      -34.2590   50.0910  145.0470 N.ar  239  HIS239     -0.2212
     87  N        -22.0940   46.6000  145.2090 N.3   243  VAL243     -0.1245
     88  CA       -21.7430   45.7370  144.0980 C.3   243  VAL243      0.1561
     89  C        -20.2930   45.9630  143.7050 C.2   243  VAL243      0.2260
     90  O        -19.8520   47.1130  143.6150 O.2   243  VAL243     -0.2867
     91  CB       -22.6260   45.9770  142.8550 C.3   243  VAL243      0.0252
     92  CG1      -22.0610   45.2270  141.6570 C.3   243  VAL243      0.0019
     93  CG2      -24.0610   45.5600  143.0900 C.3   243  VAL243      0.0019
     94  N        -25.9050   36.6710  136.4000 N.3   261  ALA261     -0.1245
     95  CA       -25.3130   37.9740  136.0920 C.3   261  ALA261      0.1562
     96  C        -24.3510   38.0320  134.9230 C.2   261  ALA261      0.2260
     97  O        -23.7730   39.0890  134.6400 O.2   261  ALA261     -0.2867
     98  CB       -24.5030   38.4260  137.3220 C.3   261  ALA261      0.0290
     99  N        -38.1030   43.2060  136.0090 N.3   334  TRP334     -0.1227
    100  CA       -36.8400   43.0500  136.7340 C.3   334  TRP334      0.1737
    101  C        -35.7990   43.9740  136.1170 C.2   334  TRP334      0.2596
    102  O        -36.1450   44.8450  135.3010 O.2   334  TRP334     -0.2718
    103  CB       -36.3860   41.5890  136.7760 C.3   334  TRP334      0.0564
    104  CG       -35.5450   41.3340  137.9980 C.ar  334  TRP334      0.0003
    105  CD1      -34.2310   40.9470  138.0370 C.ar  334  TRP334      0.0946
    106  CD2      -35.9790   41.4530  139.3610 C.ar  334  TRP334      0.0152
    107  NE1      -33.8170   40.8200  139.3440 N.ar  334  TRP334     -0.2442
    108  CE2      -34.8750   41.1250  140.1720 C.ar  334  TRP334      0.0810
    109  CE3      -37.1940   41.8070  139.9560 C.ar  334  TRP334      0.0012
    110  CZ2      -34.9570   41.1420  141.5650 C.ar  334  TRP334      0.0191
    111  CZ3      -37.2740   41.8220  141.3370 C.ar  334  TRP334      0.0001
    112  CH2      -36.1580   41.4890  142.1150 C.ar  334  TRP334      0.0015
    113  N        -34.5370   43.8280  136.4910 N.am  335  GLY335     -0.1957
    114  CA       -33.5130   44.7490  136.0420 C.3   335  GLY335      0.1869
    115  C        -32.1120   44.1940  136.1190 C.2   335  GLY335      0.2309
    116  O        -31.9240   42.9800  136.1460 O.2   335  GLY335     -0.2863
    117  N        -27.8320   45.4420  137.5120 N.3   337  VAL337     -0.1245
    118  CA       -27.0800   46.4650  138.2220 C.3   337  VAL337      0.1561
    119  C        -26.1460   47.2310  137.3020 C.2   337  VAL337      0.2260
    120  O        -25.5890   48.2320  137.7450 O.2   337  VAL337     -0.2867
    121  CB       -26.2290   45.8890  139.3780 C.3   337  VAL337      0.0252
    122  CG1      -27.1690   45.4360  140.4760 C.3   337  VAL337      0.0019
    123  CG2      -25.3420   44.7720  138.8650 C.3   337  VAL337      0.0019
    124  N        -31.0750   51.4820  136.3220 N.3   363  MET363     -0.1245
    125  CA       -31.6970   50.3630  137.0140 C.3   363  MET363      0.1570
    126  C        -32.8260   50.8450  137.9140 C.2   363  MET363      0.2261
    127  O        -33.9390   50.3200  137.8970 O.2   363  MET363     -0.2867
    128  CB       -30.7080   49.5640  137.8800 C.3   363  MET363      0.0387
    129  CG       -31.4310   48.4230  138.6230 C.3   363  MET363      0.0595
    130  SD       -30.3310   47.5260  139.7580 S.3   363  MET363     -0.1393
    131  CE       -30.1350   48.7530  141.0560 C.3   363  MET363      0.0692
@<TRIPOS>BOND
     1     1     2    1
     2    15    14    2
     3    14    13    1
     4    12    13    1
     5     4     3    2
     6    97    96    2
     7     2     3    1
     8     2     5    1
     9    13    16    1
    10     3     6   am
    11    96    95    1
    12     8     9    2
    13     8     7    1
    14   102   101    2
    15     6     7    1
    16    99   100    1
    17   114   115    1
    18   114   113    1
    19    95    94    1
    20    95    98    1
    21    16    17    1
    22     7    10    1
    23   101   113   am
    24   101   100    1
    25   115   116    2
    26   124   125    1
    27   100   103    1
    28   103   104    1
    29   125   128    1
    30   125   126    1
    31    17    18    1
    32   119   120    2
    33   119   118    1
    34    56    54    1
    35    10    11    1
    36   117   118    1
    37    52    51    2
    38   128   129    1
    39   127   126    2
    40   104   105   ar
    41   104   106   ar
    42   105   107   ar
    43   118   121    1
    44    55    53    1
    45    50    51    1
    46    50    53    1
    47    50    49    1
    48    18    19    1
    49   129   130    1
    50   123   121    1
    51    54    53    1
    52   107   108   ar
    53   106   109   ar
    54   106   108   ar
    55   121   122    1
    56    19    20    1
    57   130   131    1
    58   109   111   ar
    59   108   110   ar
    60    68    67    1
    61    44    43    2
    62   111   112   ar
    63    32    31    1
    64    67    65   ar
    65    67    66   ar
    66    43    42    1
    67   110   112   ar
    68    92    91    1
    69    65    63   ar
    70    66    64   ar
    71    31    29   ar
    72    31    30   ar
    73    91    93    1
    74    91    88    1
    75    42    45    1
    76    42    41    1
    77    63    62   ar
    78    29    27   ar
    79    30    28   ar
    80    45    46    1
    81    90    89    2
    82    89    88    1
    83    64    62   ar
    84    88    87    1
    85    62    61    1
    86    76    74    1
    87    40    38    1
    88    27    26   ar
    89    28    26   ar
    90    84    86   ar
    91    84    82   ar
    92    46    48   ar
    93    46    47   ar
    94    86    85   ar
    95    26    25    1
    96    74    75    1
    97    74    73    1
    98    61    58    1
    99    38    39    1
   100    38    37    1
   101    82    81    1
   102    82    83   ar
   103    85    83   ar
   104    58    59    1
   105    58    57    1
   106    59    60    2
   107    70    73    1
   108    70    69    1
   109    70    71    1
   110    37    34    1
   111    81    78    1
   112    25    22    1
   113    71    72    2
   114    80    79    2
   115    78    79    1
   116    78    77    1
   117    22    23    1
   118    22    21    1
   119    34    33    1
   120    34    35    1
   121    23    24    2
   122    35    36    2
