@<TRIPOS>MOLECULE
tmp/1cimA00.pdb
 169 166 0 0 0
SMALL
GASTEIGER

@<TRIPOS>ATOM
      1  N          8.2850   -0.5730   10.5500 N.3     2  TRP2       -0.1241
      2  CA         7.5830   -1.5620   11.3350 C.3     2  TRP2        0.1605
      3  C          6.6570   -2.3930   10.4910 C.2     2  TRP2        0.2264
      4  O          6.1690   -1.9240    9.4620 O.2     2  TRP2       -0.2867
      5  CB         6.8160   -0.8430   12.4220 C.3     2  TRP2        0.0550
      6  CG         5.5980   -0.0300   11.9850 C.ar    2  TRP2        0.0003
      7  CD1        5.7170    1.2730   11.6010 C.ar    2  TRP2        0.0946
      8  CD2        4.2860   -0.4690   11.9930 C.ar    2  TRP2        0.0152
      9  NE1        4.4870    1.6580   11.3820 N.ar    2  TRP2       -0.2442
     10  CE2        3.6050    0.6620   11.5990 C.ar    2  TRP2        0.0810
     11  CE3        3.6040   -1.6280   12.2840 C.ar    2  TRP2        0.0012
     12  CZ2        2.2400    0.6620   11.4870 C.ar    2  TRP2        0.0191
     13  CZ3        2.2330   -1.6180   12.1700 C.ar    2  TRP2        0.0001
     14  CH2        1.5540   -0.4870   11.7760 C.ar    2  TRP2        0.0015
     15  N         -3.2280    0.3470    3.5550 N.3    59  ASN59      -0.1240
     16  CA        -2.1530    1.1990    4.0610 C.3    59  ASN59       0.1653
     17  C         -0.8750    0.4430    4.4170 C.2    59  ASN59       0.2266
     18  O          0.0250    0.9820    5.0760 O.2    59  ASN59      -0.2867
     19  CB        -2.6440    1.9560    5.3000 C.3    59  ASN59       0.1155
     20  CG        -3.0120    1.0900    6.5060 C.2    59  ASN59       0.2627
     21  OD1       -2.7200   -0.1040    6.6160 O.2    59  ASN59      -0.2716
     22  ND2       -3.6830    1.6660    7.4910 N.am   59  ASN59      -0.0877
     23  N         -0.5700   -2.1230    6.4150 N.3    61  HIS61      -0.1241
     24  CA        -0.7270   -3.0040    7.5520 C.3    61  HIS61       0.1621
     25  C         -2.1430   -3.5330    7.7670 C.2    61  HIS61       0.2264
     26  O         -2.3560   -4.5040    8.5160 O.2    61  HIS61      -0.2867
     27  CB        -0.2120   -2.2830    8.8030 C.3    61  HIS61       0.0745
     28  CG        -0.8270   -0.9310    9.1120 C.ar   61  HIS61       0.0817
     29  ND1       -0.2960    0.2660    8.8970 N.ar   61  HIS61      -0.2268
     30  CD2       -2.0440   -0.7560    9.7240 C.ar   61  HIS61       0.1154
     31  CE1       -1.1320    1.1640    9.3620 C.ar   61  HIS61       0.1986
     32  NE2       -2.1840    0.5440    9.8580 N.ar   61  HIS61      -0.2212
     33  N        -14.0060    8.4500   12.7230 N.3    88  ILE88      -0.1231
     34  CA       -13.1880    8.8550   11.5980 C.3    88  ILE88       0.1692
     35  C        -12.8970    7.6580   10.6850 C.2    88  ILE88       0.2591
     36  O        -12.8680    7.8490    9.4730 O.2    88  ILE88      -0.2718
     37  CB       -11.8570    9.4830   12.1020 C.3    88  ILE88       0.0266
     38  CG1      -11.0650    9.9640   10.8750 C.3    88  ILE88       0.0019
     39  CG2      -11.0290    8.4910   12.9230 C.3    88  ILE88       0.0020
     40  CD1       -9.8330   10.8330   11.1880 C.3    88  ILE88       0.0001
     41  N        -12.7160    6.4270   11.1810 N.am   89  GLN89      -0.1979
     42  CA       -12.3440    5.2640   10.3860 C.3    89  GLN89       0.1601
     43  C        -12.5480    3.9550   11.1410 C.2    89  GLN89       0.2287
     44  O        -12.7210    4.0000   12.3650 O.2    89  GLN89      -0.2864
     45  CB       -10.8640    5.3310    9.9780 C.3    89  GLN89       0.0394
     46  CG        -9.8730    5.4330   11.1260 C.3    89  GLN89       0.0908
     47  CD        -8.9910    4.2140   11.2400 C.2    89  GLN89       0.2608
     48  OE1       -9.4060    3.0820   10.9980 O.2    89  GLN89      -0.2717
     49  NE2       -7.7410    4.4020   11.6230 N.am   89  GLN89      -0.0878
     50  N        -11.0050   -0.3740   10.8930 N.3    91  HIS91      -0.1241
     51  CA       -10.0700   -1.3310   10.3100 C.3    91  HIS91       0.1621
     52  C        -10.1930   -2.6210   11.0930 C.2    91  HIS91       0.2264
     53  O        -10.8190   -2.6400   12.1640 O.2    91  HIS91      -0.2867
     54  CB        -8.6210   -0.8830   10.4290 C.3    91  HIS91       0.0745
     55  CG        -8.1600   -0.4760   11.8230 C.ar   91  HIS91       0.0817
     56  ND1       -8.4700    0.6560   12.4400 N.ar   91  HIS91      -0.2268
     57  CD2       -7.3830   -1.2370   12.6720 C.ar   91  HIS91       0.1154
     58  CE1       -7.9230    0.6110   13.6280 C.ar   91  HIS91       0.1986
     59  NE2       -7.2780   -0.5210   13.7600 N.ar   91  HIS91      -0.2212
     60  N         -8.0610   -6.4850   12.3860 N.3    93  HIS93      -0.1241
     61  CA        -6.7950   -7.1860   12.6240 C.3    93  HIS93       0.1621
     62  C         -7.2480   -8.6300   12.4800 C.2    93  HIS93       0.2264
     63  O         -8.3610   -8.9390   12.9600 O.2    93  HIS93      -0.2867
     64  CB        -6.2710   -6.9080   14.0520 C.3    93  HIS93       0.0745
     65  CG        -5.8800   -5.4480   14.2710 C.ar   93  HIS93       0.0817
     66  ND1       -4.6870   -4.8910   14.1480 N.ar   93  HIS93      -0.2268
     67  CD2       -6.7650   -4.4580   14.6370 C.ar   93  HIS93       0.1154
     68  CE1       -4.8150   -3.6210   14.4150 C.ar   93  HIS93       0.1986
     69  NE2       -6.0520   -3.3580   14.7130 N.ar   93  HIS93      -0.2212
     70  N        -11.9290   -2.4880   14.8240 N.3   116  HIS116     -0.1241
     71  CA       -11.7030   -1.3030   15.6340 C.3   116  HIS116      0.1621
     72  C        -12.3620   -0.1100   14.9820 C.2   116  HIS116      0.2264
     73  O        -12.0590    0.2150   13.8240 O.2   116  HIS116     -0.2867
     74  CB       -10.2230   -1.0300   15.7690 C.3   116  HIS116      0.0745
     75  CG        -9.4530   -2.0410   16.5980 C.ar  116  HIS116      0.0817
     76  ND1       -8.1530   -2.1090   16.4610 N.ar  116  HIS116     -0.2268
     77  CD2       -9.9410   -2.9130   17.5370 C.ar  116  HIS116      0.1154
     78  CE1       -7.7930   -3.0330   17.3230 C.ar  116  HIS116      0.1986
     79  NE2       -8.8450   -3.5000   17.9500 N.ar  116  HIS116     -0.2212
     80  N        -12.5970    3.6550   15.2180 N.3   118  VAL118     -0.1245
     81  CA       -11.7750    4.6820   15.8330 C.3   118  VAL118      0.1561
     82  C        -12.5010    6.0180   15.8980 C.2   118  VAL118      0.2260
     83  O        -12.9890    6.4940   14.8570 O.2   118  VAL118     -0.2867
     84  CB       -10.4650    4.8110   15.0320 C.3   118  VAL118      0.0252
     85  CG1       -9.5330    5.8120   15.7360 C.3   118  VAL118      0.0019
     86  CG2       -9.7860    3.4430   14.9090 C.3   118  VAL118      0.0019
     87  N         -8.3370   15.5610   14.7870 N.3   127  PHE127     -0.1241
     88  CA        -7.7050   14.3190   15.2130 C.3   127  PHE127      0.1605
     89  C         -6.2810   14.5220   15.7050 C.2   127  PHE127      0.2264
     90  O         -5.8610   13.9130   16.6850 O.2   127  PHE127     -0.2867
     91  CB        -7.7320   13.3150   14.0520 C.3   127  PHE127      0.0534
     92  CG        -7.1220   11.9550   14.3530 C.ar  127  PHE127     -0.0203
     93  CD1       -7.8750   10.9910   14.9830 C.ar  127  PHE127     -0.0042
     94  CD2       -5.7980   11.6920   14.0070 C.ar  127  PHE127     -0.0042
     95  CE1       -7.3080    9.7700   15.2690 C.ar  127  PHE127     -0.0003
     96  CE2       -5.2420   10.4620   14.3010 C.ar  127  PHE127     -0.0003
     97  CZ        -5.9990    9.5020   14.9330 C.ar  127  PHE127     -0.0000
     98  N         -4.8360   13.1780   19.5470 N.3   131  VAL131     -0.1245
     99  CA        -3.7720   12.2670   19.9440 C.3   131  VAL131      0.1561
    100  C         -2.7110   12.9460   20.8400 C.2   131  VAL131      0.2260
    101  O         -1.7090   12.3540   21.2420 O.2   131  VAL131     -0.2867
    102  CB        -3.1000   11.6110   18.6760 C.3   131  VAL131      0.0252
    103  CG1       -4.1700   10.8090   17.9860 C.3   131  VAL131      0.0019
    104  CG2       -2.4530   12.6130   17.7420 C.3   131  VAL131      0.0019
    105  N         -9.0530    9.7120   22.3730 N.3   137  LEU137     -0.1245
    106  CA        -9.6460    8.7740   21.4440 C.3   137  LEU137      0.1561
    107  C        -10.4290    7.7220   22.1780 C.2   137  LEU137      0.2260
    108  O        -10.0880    7.3570   23.3080 O.2   137  LEU137     -0.2867
    109  CB        -8.5890    8.0280   20.6250 C.3   137  LEU137      0.0270
    110  CG        -7.5280    8.7660   19.8090 C.3   137  LEU137      0.0019
    111  CD1       -6.6050    7.7700   19.1430 C.3   137  LEU137      0.0001
    112  CD2       -8.1910    9.6020   18.7570 C.3   137  LEU137      0.0001
    113  N        -11.7440    3.8070   21.1190 N.3   139  VAL139     -0.1245
    114  CA       -11.8440    2.8330   20.0470 C.3   139  VAL139      0.1561
    115  C        -12.8590    1.8230   20.5560 C.2   139  VAL139      0.2260
    116  O        -12.7870    1.3890   21.7100 O.2   139  VAL139     -0.2867
    117  CB       -10.4610    2.1570   19.7580 C.3   139  VAL139      0.0252
    118  CG1      -10.5990    1.1550   18.6280 C.3   139  VAL139      0.0019
    119  CG2       -9.4340    3.1840   19.2290 C.3   139  VAL139      0.0019
    120  N         -2.9860    3.1110   21.2170 N.3   194  LEU194     -0.1231
    121  CA        -3.1010    2.5840   19.8440 C.3   194  LEU194      0.1693
    122  C         -2.3280    1.2700   19.8630 C.2   194  LEU194      0.2593
    123  O         -1.3460    1.1850   20.6120 O.2   194  LEU194     -0.2718
    124  CB        -2.4160    3.4840   18.8020 C.3   194  LEU194      0.0284
    125  CG        -2.8720    4.9420   18.7540 C.3   194  LEU194      0.0019
    126  CD1       -2.0510    5.7250   17.7570 C.3   194  LEU194      0.0001
    127  CD2       -4.3370    4.9640   18.4330 C.3   194  LEU194      0.0001
    128  N         -2.7070    0.2620   19.0610 N.am  195  THR195     -0.1939
    129  CA        -1.9880   -0.9950   19.0990 C.3   195  THR195      0.2028
    130  C         -0.9860   -1.1600   17.9650 C.2   195  THR195      0.2643
    131  O         -0.4280   -2.2440   17.7510 O.2   195  THR195     -0.2714
    132  CB        -3.0000   -2.1510   19.0900 C.3   195  THR195      0.1808
    133  OG1       -3.6900   -2.0280   17.8750 O.3   195  THR195     -0.2208
    134  CG2       -4.0040   -2.1440   20.2430 C.3   195  THR195      0.0379
    135  N         -0.8070   -0.1220   17.1510 N.am  196  THR196     -0.1937
    136  CA         0.2270   -0.1140   16.1440 C.3   196  THR196      0.2013
    137  C          1.0230    1.1680   16.4270 C.2   196  THR196      0.2484
    138  O          0.4930    2.0970   17.0730 O.2   196  THR196     -0.2729
    139  CB        -0.3720   -0.0850   14.7050 C.3   196  THR196      0.1807
    140  OG1       -1.0460    1.1410   14.5300 O.3   196  THR196     -0.2208
    141  CG2       -1.3810   -1.1900   14.4620 C.3   196  THR196      0.0379
    142  N          2.2910    1.3260   16.0100 N.am  197  PRO197     -0.2715
    143  CA         2.9760    2.6060   15.9780 C.3   197  PRO197      0.1521
    144  C          2.0660    3.7220   15.4960 C.2   197  PRO197      0.2440
    145  O          1.2850    3.4990   14.5580 O.2   197  PRO197     -0.2731
    146  CB         4.1360    2.3490   15.0930 C.3   197  PRO197      0.0310
    147  CG         4.5420    1.0040   15.5890 C.3   197  PRO197      0.0237
    148  CD         3.2000    0.2750   15.5630 C.3   197  PRO197      0.0939
    149  N          2.0830    4.9080   16.1160 N.am  198  PRO198     -0.2727
    150  CA         3.0230    5.2960   17.1550 C.3   198  PRO198      0.1402
    151  C          2.6930    4.8610   18.5890 C.2   198  PRO198      0.2269
    152  O          3.3530    5.3190   19.5050 O.2   198  PRO198     -0.2865
    153  CB         3.1010    6.7940   16.9510 C.3   198  PRO198      0.0296
    154  CG         1.6970    7.1650   16.6240 C.3   198  PRO198      0.0237
    155  CD         1.1990    6.0070   15.7520 C.3   198  PRO198      0.0939
    156  N        -10.4470    2.2990   25.7230 N.3   205  TRP205     -0.1241
    157  CA       -10.8910    1.1180   25.0230 C.3   205  TRP205      0.1605
    158  C        -12.2450    0.6910   25.5170 C.2   205  TRP205      0.2264
    159  O        -12.5000    0.6410   26.7340 O.2   205  TRP205     -0.2867
    160  CB        -9.8870   -0.0140   25.2170 C.3   205  TRP205      0.0550
    161  CG        -8.7820    0.0740   24.1620 C.ar  205  TRP205      0.0003
    162  CD1       -7.5640    0.6570   24.3920 C.ar  205  TRP205      0.0946
    163  CD2       -8.9080   -0.3820   22.8740 C.ar  205  TRP205      0.0152
    164  NE1       -6.9220    0.5820   23.2470 N.ar  205  TRP205     -0.2442
    165  CE2       -7.6890   -0.0310   22.3250 C.ar  205  TRP205      0.0810
    166  CE3       -9.8910   -1.0250   22.1420 C.ar  205  TRP205      0.0012
    167  CZ2       -7.4360   -0.3320   21.0050 C.ar  205  TRP205      0.0191
    168  CZ3       -9.6320   -1.3200   20.8340 C.ar  205  TRP205      0.0001
    169  CH2       -8.4170   -0.9760   20.2750 C.ar  205  TRP205      0.0015
@<TRIPOS>BOND
     1    15    16    1
     2    16    17    1
     3    16    19    1
     4    17    18    2
     5    19    20    1
     6    23    24    1
     7    20    21    2
     8    20    22   am
     9    24    25    1
    10    24    27    1
    11    25    26    2
    12    27    28    1
    13    29    28   ar
    14    29    31   ar
    15    28    30   ar
    16    31    32   ar
    17     4     3    2
    18    36    35    2
    19    30    32   ar
    20    45    42    1
    21    45    46    1
    22    51    54    1
    23    51    50    1
    24    51    52    1
    25    42    43    1
    26    42    41    1
    27    54    55    1
    28     3     2    1
    29     1     2    1
    30    35    41   am
    31    35    34    1
    32    38    40    1
    33    38    37    1
    34    48    47    2
    35    52    53    2
    36    46    47    1
    37    43    44    2
    38    47    49   am
    39     2     5    1
    40     9    10   ar
    41     9     7   ar
    42    12    10   ar
    43    12    14   ar
    44    34    37    1
    45    34    33    1
    46    10     8   ar
    47     7     6   ar
    48    14    13   ar
    49    55    56   ar
    50    55    57   ar
    51     6     8   ar
    52     6     5    1
    53     8    11   ar
    54    37    39    1
    55    13    11   ar
    56    60    61    1
    57    56    58   ar
    58    62    61    1
    59    62    63    2
    60    61    64    1
    61    57    59   ar
    62    58    59   ar
    63    73    72    2
    64    94    96   ar
    65    94    92   ar
    66    64    65    1
    67    91    92    1
    68    91    88    1
    69    66    65   ar
    70    66    68   ar
    71    65    67   ar
    72    96    97   ar
    73    92    93   ar
    74    68    69   ar
    75   141   139    1
    76   140   139    1
    77   145   144    2
    78    67    69   ar
    79   139   136    1
    80    87    88    1
    81    70    71    1
    82    83    82    2
    83    86    84    1
    84    97    95   ar
    85    72    71    1
    86    93    95   ar
    87    84    85    1
    88    84    81    1
    89   146   147    1
    90   146   143    1
    91    88    89    1
    92    80    81    1
    93   144   143    1
    94   144   149   am
    95   148   147    1
    96   148   142    1
    97    71    74    1
    98    89    90    2
    99   155   149    1
   100   155   154    1
   101    74    75    1
   102    81    82    1
   103   143   142    1
   104   142   137   am
   105   149   150    1
   106   136   137    1
   107   136   135    1
   108   137   138    2
   109    76    75   ar
   110    76    78   ar
   111    75    77   ar
   112   154   153    1
   113   153   150    1
   114   135   130   am
   115   150   151    1
   116    78    79   ar
   117    77    79   ar
   118   104   102    1
   119   131   130    2
   120   126   125    1
   121   133   132    1
   122   130   129    1
   123   103   102    1
   124   127   125    1
   125   151   152    2
   126   118   117    1
   127   102    99    1
   128   125   124    1
   129   112   110    1
   130   124   121    1
   131   128   129    1
   132   128   122   am
   133   132   129    1
   134   132   134    1
   135   111   110    1
   136   119   117    1
   137    98    99    1
   138   117   114    1
   139   110   109    1
   140   121   122    1
   141   121   120    1
   142   122   123    2
   143    99   100    1
   144   114   115    1
   145   114   113    1
   146   169   168   ar
   147   169   167   ar
   148   115   116    2
   149   109   106    1
   150   168   166   ar
   151   100   101    2
   152   167   165   ar
   153   106   107    1
   154   106   105    1
   155   166   163   ar
   156   107   108    2
   157   165   163   ar
   158   165   164   ar
   159   163   161   ar
   160   164   162   ar
   161   161   162   ar
   162   161   160    1
   163   157   160    1
   164   157   158    1
   165   157   156    1
   166   158   159    2
