@<TRIPOS>MOLECULE
tmp/1cinA00.pdb
 169 166 0 0 0
SMALL
GASTEIGER

@<TRIPOS>ATOM
      1  N          8.2950   -0.4780   10.5570 N.3     2  TRP2       -0.1241
      2  CA         7.6010   -1.4800   11.3370 C.3     2  TRP2        0.1605
      3  C          6.6710   -2.3300   10.4960 C.2     2  TRP2        0.2264
      4  O          6.2230   -1.9110    9.4330 O.2     2  TRP2       -0.2867
      5  CB         6.8360   -0.7680   12.4470 C.3     2  TRP2        0.0550
      6  CG         5.6100    0.0380   12.0030 C.ar    2  TRP2        0.0003
      7  CD1        5.7090    1.3490   11.6290 C.ar    2  TRP2        0.0946
      8  CD2        4.3070   -0.4170   11.9950 C.ar    2  TRP2        0.0152
      9  NE1        4.4780    1.7240   11.4010 N.ar    2  TRP2       -0.2442
     10  CE2        3.6150    0.7120   11.6070 C.ar    2  TRP2        0.0810
     11  CE3        3.6390   -1.5920   12.2670 C.ar    2  TRP2        0.0012
     12  CZ2        2.2490    0.6930   11.4870 C.ar    2  TRP2        0.0191
     13  CZ3        2.2680   -1.6020   12.1430 C.ar    2  TRP2        0.0001
     14  CH2        1.5830   -0.4740   11.7600 C.ar    2  TRP2        0.0015
     15  N         -3.3660    0.3950    3.6090 N.3    59  ASN59      -0.1240
     16  CA        -2.2370    1.2070    4.0580 C.3    59  ASN59       0.1653
     17  C         -0.9590    0.4260    4.3550 C.2    59  ASN59       0.2266
     18  O         -0.0250    0.9210    4.9990 O.2    59  ASN59      -0.2867
     19  CB        -2.6650    1.9930    5.2990 C.3    59  ASN59       0.1155
     20  CG        -3.0740    1.1570    6.5010 C.2    59  ASN59       0.2627
     21  OD1       -2.7540   -0.0260    6.6240 O.2    59  ASN59      -0.2716
     22  ND2       -3.8010    1.7170    7.4640 N.am   59  ASN59      -0.0877
     23  N         -0.7220   -2.1490    6.3360 N.3    61  HIS61      -0.1241
     24  CA        -0.8570   -2.9900    7.5140 C.3    61  HIS61       0.1621
     25  C         -2.2610   -3.4540    7.8850 C.2    61  HIS61       0.2264
     26  O         -2.4400   -4.2770    8.7980 O.2    61  HIS61      -0.2867
     27  CB        -0.2320   -2.2930    8.7150 C.3    61  HIS61       0.0745
     28  CG        -0.6700   -0.8720    8.9570 C.ar   61  HIS61       0.0817
     29  ND1       -0.0160    0.2220    8.5740 N.ar   61  HIS61      -0.2268
     30  CD2       -1.8220   -0.5140    9.6170 C.ar   61  HIS61       0.1154
     31  CE1       -0.7370    1.2370    8.9810 C.ar   61  HIS61       0.1986
     32  NE2       -1.8200    0.7970    9.6050 N.ar   61  HIS61      -0.2212
     33  N        -13.9980    8.4330   12.7250 N.3    88  ILE88      -0.1231
     34  CA       -13.1810    8.8130   11.5940 C.3    88  ILE88       0.1692
     35  C        -12.8880    7.6030   10.6980 C.2    88  ILE88       0.2591
     36  O        -12.8320    7.7570    9.4800 O.2    88  ILE88      -0.2718
     37  CB       -11.8710    9.4820   12.1220 C.3    88  ILE88       0.0266
     38  CG1      -11.0530    9.9040   10.9100 C.3    88  ILE88       0.0019
     39  CG2      -11.0540    8.5660   13.0250 C.3    88  ILE88       0.0020
     40  CD1       -9.8950   10.8680   11.2420 C.3    88  ILE88       0.0001
     41  N        -12.7200    6.3760   11.2030 N.am   89  GLN89      -0.1979
     42  CA       -12.4010    5.2150   10.3590 C.3    89  GLN89       0.1601
     43  C        -12.6050    3.9210   11.1230 C.2    89  GLN89       0.2287
     44  O        -12.7450    3.9970   12.3490 O.2    89  GLN89      -0.2864
     45  CB       -10.9390    5.2320    9.8880 C.3    89  GLN89       0.0394
     46  CG        -9.9090    5.2900   11.0330 C.3    89  GLN89       0.0908
     47  CD        -9.0720    4.0290   11.1500 C.2    89  GLN89       0.2608
     48  OE1       -9.5090    2.9210   10.8420 O.2    89  GLN89      -0.2717
     49  NE2       -7.8350    4.1240   11.5940 N.am   89  GLN89      -0.0878
     50  N        -11.1010   -0.3880   10.9690 N.3    91  HIS91      -0.1241
     51  CA       -10.2170   -1.3570   10.3290 C.3    91  HIS91       0.1621
     52  C        -10.3250   -2.6700   11.0880 C.2    91  HIS91       0.2264
     53  O        -10.9910   -2.7540   12.1340 O.2    91  HIS91      -0.2867
     54  CB        -8.7670   -0.8660   10.3590 C.3    91  HIS91       0.0745
     55  CG        -8.2680   -0.4960   11.7470 C.ar   91  HIS91       0.0817
     56  ND1       -8.4820    0.6360   12.3880 N.ar   91  HIS91      -0.2268
     57  CD2       -7.5220   -1.3290   12.5600 C.ar   91  HIS91       0.1154
     58  CE1       -7.9050    0.5370   13.5550 C.ar   91  HIS91       0.1986
     59  NE2       -7.3300   -0.6440   13.6560 N.ar   91  HIS91      -0.2212
     60  N         -8.1400   -6.4310   12.4050 N.3    93  HIS93      -0.1241
     61  CA        -6.8910   -7.1680   12.6090 C.3    93  HIS93       0.1621
     62  C         -7.3170   -8.6270   12.4300 C.2    93  HIS93       0.2264
     63  O         -8.4050   -8.9470   12.9330 O.2    93  HIS93      -0.2867
     64  CB        -6.3610   -6.9060   14.0290 C.3    93  HIS93       0.0745
     65  CG        -5.9130   -5.4550   14.2340 C.ar   93  HIS93       0.0817
     66  ND1       -4.6870   -4.9690   14.1380 N.ar   93  HIS93      -0.2268
     67  CD2       -6.7470   -4.4090   14.5650 C.ar   93  HIS93       0.1154
     68  CE1       -4.7360   -3.6870   14.3920 C.ar   93  HIS93       0.1986
     69  NE2       -5.9700   -3.3530   14.6480 N.ar   93  HIS93      -0.2212
     70  N        -12.0090   -2.5840   14.8650 N.3   116  HIS116     -0.1241
     71  CA       -11.7580   -1.3750   15.6480 C.3   116  HIS116      0.1621
     72  C        -12.4170   -0.2010   14.9640 C.2   116  HIS116      0.2264
     73  O        -12.1250    0.0710   13.7910 O.2   116  HIS116     -0.2867
     74  CB       -10.2660   -1.1030   15.7550 C.3   116  HIS116      0.0745
     75  CG        -9.4860   -2.1060   16.5840 C.ar  116  HIS116      0.0817
     76  ND1       -8.1830   -2.1850   16.4560 N.ar  116  HIS116     -0.2268
     77  CD2       -9.9720   -2.9510   17.5430 C.ar  116  HIS116      0.1154
     78  CE1       -7.8300   -3.0900   17.3500 C.ar  116  HIS116      0.1986
     79  NE2       -8.8850   -3.5340   17.9820 N.ar  116  HIS116     -0.2212
     80  N        -12.6660    3.6610   15.1810 N.3   118  VAL118     -0.1245
     81  CA       -11.8580    4.6820   15.8240 C.3   118  VAL118      0.1561
     82  C        -12.5730    6.0290   15.8650 C.2   118  VAL118      0.2260
     83  O        -13.0380    6.5260   14.8210 O.2   118  VAL118     -0.2867
     84  CB       -10.5010    4.7670   15.0620 C.3   118  VAL118      0.0252
     85  CG1       -9.5880    5.8060   15.7390 C.3   118  VAL118      0.0019
     86  CG2       -9.8080    3.3830   15.0540 C.3   118  VAL118      0.0019
     87  N         -8.3920   15.6010   14.7740 N.3   127  PHE127     -0.1241
     88  CA        -7.7240   14.3530   15.1320 C.3   127  PHE127      0.1605
     89  C         -6.2950   14.5280   15.6540 C.2   127  PHE127      0.2264
     90  O         -5.9340   14.0030   16.7110 O.2   127  PHE127     -0.2867
     91  CB        -7.7250   13.4160   13.9160 C.3   127  PHE127      0.0534
     92  CG        -7.2080   12.0290   14.2570 C.ar  127  PHE127     -0.0203
     93  CD1       -8.0390   11.1320   14.8820 C.ar  127  PHE127     -0.0042
     94  CD2       -5.8940   11.6900   13.9810 C.ar  127  PHE127     -0.0042
     95  CE1       -7.5440    9.8990   15.2320 C.ar  127  PHE127     -0.0003
     96  CE2       -5.4040   10.4510   14.3370 C.ar  127  PHE127     -0.0003
     97  CZ        -6.2360    9.5550   14.9660 C.ar  127  PHE127     -0.0000
     98  N         -4.8670   13.2560   19.5470 N.3   131  VAL131     -0.1245
     99  CA        -3.7950   12.3450   19.9400 C.3   131  VAL131      0.1561
    100  C         -2.7630   12.9860   20.8720 C.2   131  VAL131      0.2260
    101  O         -1.7600   12.3670   21.2220 O.2   131  VAL131     -0.2867
    102  CB        -3.0570   11.7420   18.6900 C.3   131  VAL131      0.0252
    103  CG1       -4.0750   10.9200   17.9530 C.3   131  VAL131      0.0019
    104  CG2       -2.4650   12.7700   17.7540 C.3   131  VAL131      0.0019
    105  N         -9.0030    9.7560   22.3120 N.3   137  LEU137     -0.1245
    106  CA        -9.6140    8.7890   21.4130 C.3   137  LEU137      0.1561
    107  C        -10.4450    7.7580   22.1380 C.2   137  LEU137      0.2260
    108  O        -10.1790    7.4300   23.3020 O.2   137  LEU137     -0.2867
    109  CB        -8.5600    8.0180   20.6190 C.3   137  LEU137      0.0270
    110  CG        -7.5510    8.7530   19.7300 C.3   137  LEU137      0.0019
    111  CD1       -6.6740    7.7300   19.0340 C.3   137  LEU137      0.0001
    112  CD2       -8.2660    9.5780   18.6710 C.3   137  LEU137      0.0001
    113  N        -11.8470    3.8320   21.0750 N.3   139  VAL139     -0.1245
    114  CA       -11.9360    2.8480   20.0160 C.3   139  VAL139      0.1561
    115  C        -12.9210    1.8080   20.5240 C.2   139  VAL139      0.2260
    116  O        -12.8250    1.3970   21.6840 O.2   139  VAL139     -0.2867
    117  CB       -10.5520    2.2100   19.7360 C.3   139  VAL139      0.0252
    118  CG1      -10.6850    1.1830   18.6200 C.3   139  VAL139      0.0019
    119  CG2       -9.5520    3.2650   19.2370 C.3   139  VAL139      0.0019
    120  N         -2.9610    3.0480   21.2230 N.3   194  LEU194     -0.1231
    121  CA        -3.0690    2.5320   19.8580 C.3   194  LEU194      0.1693
    122  C         -2.3130    1.1990   19.8870 C.2   194  LEU194      0.2593
    123  O         -1.3680    1.0780   20.6790 O.2   194  LEU194     -0.2718
    124  CB        -2.3700    3.4350   18.8320 C.3   194  LEU194      0.0284
    125  CG        -2.8150    4.8920   18.7260 C.3   194  LEU194      0.0019
    126  CD1       -2.0030    5.6260   17.6640 C.3   194  LEU194      0.0001
    127  CD2       -4.2870    4.9200   18.4230 C.3   194  LEU194      0.0001
    128  N         -2.6780    0.2050   19.0640 N.am  195  THR195     -0.1939
    129  CA        -1.9730   -1.0640   19.1180 C.3   195  THR195      0.2028
    130  C         -0.9590   -1.2050   18.0030 C.2   195  THR195      0.2643
    131  O         -0.4050   -2.2840   17.7870 O.2   195  THR195     -0.2714
    132  CB        -2.9970   -2.1970   19.0590 C.3   195  THR195      0.1808
    133  OG1       -3.6230   -2.0700   17.8040 O.3   195  THR195     -0.2208
    134  CG2       -4.0410   -2.1600   20.1570 C.3   195  THR195      0.0379
    135  N         -0.7660   -0.1550   17.2020 N.am  196  THR196     -0.1937
    136  CA         0.2600   -0.1420   16.1810 C.3   196  THR196      0.2013
    137  C          1.0970    1.1070   16.4930 C.2   196  THR196      0.2484
    138  O          0.5790    2.0170   17.1720 O.2   196  THR196     -0.2729
    139  CB        -0.3880   -0.0470   14.7790 C.3   196  THR196      0.1807
    140  OG1       -1.0280    1.2180   14.6880 O.3   196  THR196     -0.2208
    141  CG2       -1.4630   -1.1130   14.5410 C.3   196  THR196      0.0379
    142  N          2.3560    1.2620   16.0470 N.am  197  PRO197     -0.2715
    143  CA         3.0650    2.5340   16.0330 C.3   197  PRO197      0.1521
    144  C          2.1530    3.6610   15.5530 C.2   197  PRO197      0.2440
    145  O          1.3820    3.4210   14.6160 O.2   197  PRO197     -0.2731
    146  CB         4.2290    2.2510   15.1450 C.3   197  PRO197      0.0310
    147  CG         4.5970    0.8610   15.5700 C.3   197  PRO197      0.0237
    148  CD         3.2200    0.2100   15.5360 C.3   197  PRO197      0.0939
    149  N          2.1390    4.8680   16.1400 N.am  198  PRO198     -0.2727
    150  CA         3.0530    5.3110   17.1830 C.3   198  PRO198      0.1402
    151  C          2.7750    4.8860   18.6160 C.2   198  PRO198      0.2269
    152  O          3.4380    5.3810   19.5230 O.2   198  PRO198     -0.2865
    153  CB         3.0740    6.8160   17.0020 C.3   198  PRO198      0.0296
    154  CG         1.6650    7.1350   16.5690 C.3   198  PRO198      0.0237
    155  CD         1.3340    5.9810   15.6270 C.3   198  PRO198      0.0939
    156  N        -10.5260    2.2880   25.6620 N.3   205  TRP205     -0.1241
    157  CA       -10.9810    1.1130   24.9590 C.3   205  TRP205      0.1605
    158  C        -12.3320    0.6960   25.4710 C.2   205  TRP205      0.2264
    159  O        -12.5500    0.6380   26.6820 O.2   205  TRP205     -0.2867
    160  CB        -9.9740   -0.0150   25.1490 C.3   205  TRP205      0.0550
    161  CG        -8.8590    0.1120   24.1360 C.ar  205  TRP205      0.0003
    162  CD1       -7.6580    0.6980   24.4350 C.ar  205  TRP205      0.0946
    163  CD2       -8.9320   -0.3340   22.8370 C.ar  205  TRP205      0.0152
    164  NE1       -6.9700    0.6210   23.3200 N.ar  205  TRP205     -0.2442
    165  CE2       -7.6880    0.0210   22.3540 C.ar  205  TRP205      0.0810
    166  CE3       -9.8750   -0.9710   22.0440 C.ar  205  TRP205      0.0012
    167  CZ2       -7.3560   -0.2570   21.0510 C.ar  205  TRP205      0.0191
    168  CZ3       -9.5400   -1.2480   20.7500 C.ar  205  TRP205      0.0001
    169  CH2       -8.2960   -0.8940   20.2590 C.ar  205  TRP205      0.0015
@<TRIPOS>BOND
     1    15    16    1
     2    16    17    1
     3    16    19    1
     4    17    18    2
     5    19    20    1
     6    23    24    1
     7    20    21    2
     8    20    22   am
     9    24    25    1
    10    24    27    1
    11    25    26    2
    12    29    28   ar
    13    29    31   ar
    14    27    28    1
    15    28    30   ar
    16    31    32   ar
    17     4     3    2
    18    36    35    2
    19    32    30   ar
    20    45    42    1
    21    45    46    1
    22    51    54    1
    23    51    50    1
    24    51    52    1
    25    54    55    1
    26    42    43    1
    27    42    41    1
    28     3     2    1
    29     1     2    1
    30    35    41   am
    31    35    34    1
    32    48    47    2
    33    38    40    1
    34    38    37    1
    35    46    47    1
    36    52    53    2
    37    43    44    2
    38    47    49   am
    39     2     5    1
    40     9    10   ar
    41     9     7   ar
    42    12    10   ar
    43    12    14   ar
    44    34    37    1
    45    34    33    1
    46    10     8   ar
    47     7     6   ar
    48    55    56   ar
    49    55    57   ar
    50    14    13   ar
    51     8     6   ar
    52     8    11   ar
    53     6     5    1
    54    37    39    1
    55    13    11   ar
    56    56    58   ar
    57    60    61    1
    58    62    61    1
    59    62    63    2
    60    57    59   ar
    61    61    64    1
    62    58    59   ar
    63    73    72    2
    64    91    92    1
    65    91    88    1
    66    94    92   ar
    67    94    96   ar
    68    64    65    1
    69    66    65   ar
    70    66    68   ar
    71    65    67   ar
    72    92    93   ar
    73    96    97   ar
    74    68    69   ar
    75   141   139    1
    76    67    69   ar
    77   145   144    2
    78   140   139    1
    79    87    88    1
    80   139   136    1
    81    83    82    2
    82    70    71    1
    83    93    95   ar
    84    72    71    1
    85    97    95   ar
    86    86    84    1
    87    84    85    1
    88    84    81    1
    89    88    89    1
    90   146   147    1
    91   146   143    1
    92    80    81    1
    93   148   147    1
    94   148   142    1
    95   144   143    1
    96   144   149   am
    97   155   149    1
    98   155   154    1
    99    71    74    1
   100    89    90    2
   101    74    75    1
   102    81    82    1
   103   143   142    1
   104   142   137   am
   105   149   150    1
   106   136   137    1
   107   136   135    1
   108    76    75   ar
   109    76    78   ar
   110   137   138    2
   111   154   153    1
   112    75    77   ar
   113   153   150    1
   114   150   151    1
   115   135   130   am
   116    78    79   ar
   117    77    79   ar
   118   126   125    1
   119   104   102    1
   120   131   130    2
   121   133   132    1
   122   103   102    1
   123   130   129    1
   124   127   125    1
   125   151   152    2
   126   118   117    1
   127   112   110    1
   128   102    99    1
   129   125   124    1
   130   124   121    1
   131   111   110    1
   132   132   129    1
   133   132   134    1
   134   128   129    1
   135   128   122   am
   136   119   117    1
   137    98    99    1
   138   110   109    1
   139   117   114    1
   140   121   122    1
   141   121   120    1
   142   122   123    2
   143    99   100    1
   144   114   115    1
   145   114   113    1
   146   169   168   ar
   147   169   167   ar
   148   115   116    2
   149   109   106    1
   150   168   166   ar
   151   100   101    2
   152   167   165   ar
   153   106   107    1
   154   106   105    1
   155   166   163   ar
   156   107   108    2
   157   165   163   ar
   158   165   164   ar
   159   163   161   ar
   160   164   162   ar
   161   161   162   ar
   162   161   160    1
   163   157   160    1
   164   157   158    1
   165   157   156    1
   166   158   159    2
