@<TRIPOS>MOLECULE
tmp/1cipA00.pdb
 211 203 0 0 0
SMALL
GASTEIGER

@<TRIPOS>ATOM
      1  N         38.1540  -36.5740    9.5580 N.3    11  GLY11      -0.1210
      2  CA        38.6830  -35.3660   10.1370 C.3    11  GLY11       0.1956
      3  C         39.3610  -34.4810    9.1020 C.2    11  GLY11       0.2612
      4  O         39.9930  -34.9990    8.1860 O.2    11  GLY11      -0.2717
      5  N         39.2060  -33.1620    9.2500 N.am   12  GLU12      -0.1965
      6  CA        39.8150  -32.1510    8.3730 C.3    12  GLU12       0.1733
      7  C         39.1470  -32.0020    7.0090 C.2    12  GLU12       0.2617
      8  O         39.6670  -31.2900    6.1510 O.2    12  GLU12      -0.2715
      9  CB        41.3130  -32.4220    8.1330 C.3    12  GLU12       0.0429
     10  CG        42.1530  -32.7920    9.3670 C.3    12  GLU12       0.1163
     11  CD        42.0810  -31.7730   10.4810 C.2    12  GLU12       0.3649
     12  OE1       41.8890  -30.5710   10.2130 O.co2  12  GLU12      -0.2457
     13  OE2       42.2030  -32.1970   11.6460 O.co2  12  GLU12      -0.2457
     14  N         37.9780  -32.6130    6.8360 N.am   13  SER13      -0.1936
     15  CA        37.2840  -32.5540    5.5570 C.3    13  SER13       0.2055
     16  C         36.6100  -31.2100    5.2480 C.2    13  SER13       0.2644
     17  O         36.2640  -30.9420    4.0770 O.2    13  SER13      -0.2714
     18  CB        36.3160  -33.7370    5.4080 C.3    13  SER13       0.2130
     19  OG        35.3000  -33.7290    6.3870 O.3    13  SER13      -0.2179
     20  N         36.4220  -30.3770    6.2800 N.am   14  GLY14      -0.1939
     21  CA        35.8210  -29.0630    6.1060 C.3    14  GLY14       0.2014
     22  C         34.3970  -28.8950    6.6300 C.2    14  GLY14       0.2639
     23  O         33.7760  -27.8640    6.4170 O.2    14  GLY14      -0.2714
     24  N         33.9120  -29.8740    7.3920 N.am   15  LYS15      -0.1963
     25  CA        32.5520  -29.8530    7.9460 C.3    15  LYS15       0.1728
     26  C         32.2280  -28.5900    8.7380 C.2    15  LYS15       0.2617
     27  O         31.2230  -27.9110    8.4690 O.2    15  LYS15      -0.2715
     28  CB        32.3300  -31.0850    8.8410 C.3    15  LYS15       0.0311
     29  CG        32.5040  -32.4110    8.1000 C.3    15  LYS15       0.0038
     30  CD        32.1760  -33.5910    8.9810 C.3    15  LYS15       0.0206
     31  CE        33.1790  -33.7230   10.1190 C.3    15  LYS15       0.1093
     32  NZ        34.5740  -34.0100    9.6630 N.3    15  LYS15      -0.1314
     33  N         33.0990  -28.2570    9.6880 N.am   16  SER16      -0.1936
     34  CA        32.8850  -27.0810   10.5230 C.3    16  SER16       0.2055
     35  C         32.9690  -25.7480    9.7890 C.2    16  SER16       0.2643
     36  O         32.3340  -24.7630   10.1850 O.2    16  SER16      -0.2714
     37  CB        33.8370  -27.1170   11.7200 C.3    16  SER16       0.2130
     38  OG        33.5700  -28.2760   12.4990 O.3    16  SER16      -0.2179
     39  N         33.7460  -25.7300    8.7080 N.am   17  THR17      -0.1950
     40  CA        33.8940  -24.5270    7.8940 C.3    17  THR17       0.1897
     41  C         32.5670  -24.2510    7.1440 C.2    17  THR17       0.2313
     42  O         32.1290  -23.1080    7.0350 O.2    17  THR17      -0.2863
     43  CB        35.1170  -24.6730    6.9600 C.3    17  THR17       0.1794
     44  OG1       36.2720  -24.9900    7.7640 O.3    17  THR17      -0.2208
     45  CG2       35.3870  -23.3590    6.1720 C.3    17  THR17       0.0378
     46  N         30.3210  -22.5410    9.5760 N.3    20  LYS20      -0.1245
     47  CA        30.6360  -21.1170    9.7130 C.3    20  LYS20       0.1561
     48  C         30.0540  -20.3000    8.5470 C.2    20  LYS20       0.2260
     49  O         29.5590  -19.1900    8.7390 O.2    20  LYS20      -0.2867
     50  CB        32.1440  -20.8940    9.7860 C.3    20  LYS20       0.0271
     51  CG        32.7980  -21.3530   11.0840 C.3    20  LYS20       0.0035
     52  CD        34.2930  -21.0270   11.0590 C.3    20  LYS20       0.0206
     53  CE        35.0040  -21.4770   12.3330 C.3    20  LYS20       0.1093
     54  NZ        35.0640  -22.9720   12.4660 N.3    20  LYS20      -0.1314
     55  N         48.7640  -27.8210    9.3800 N.3   118  ASN118     -0.1225
     56  CA        47.5050  -27.1260    9.0940 C.3   118  ASN118      0.1785
     57  C         47.4570  -26.5390    7.7010 C.2   118  ASN118      0.2597
     58  O         48.3830  -25.8580    7.2620 O.2   118  ASN118     -0.2718
     59  CB        47.2320  -25.9800   10.0750 C.3   118  ASN118      0.1169
     60  CG        46.9100  -26.4570   11.4640 C.2   118  ASN118      0.2627
     61  OD1       46.6600  -27.6490   11.6770 O.2   118  ASN118     -0.2716
     62  ND2       46.9320  -25.5330   12.4360 N.am  118  ASN118     -0.0877
     63  N         46.3380  -26.7690    7.0270 N.am  119  ASP119     -0.1960
     64  CA        46.1370  -26.2460    5.6820 C.3   119  ASP119      0.1840
     65  C         46.2490  -24.7280    5.6370 C.2   119  ASP119      0.2622
     66  O         46.6400  -24.1660    4.6040 O.2   119  ASP119     -0.2715
     67  CB        44.7770  -26.6630    5.1670 C.3   119  ASP119      0.1450
     68  CG        44.7830  -28.0620    4.6410 C.2   119  ASP119      0.3671
     69  OD1       45.8460  -28.5930    4.2700 O.co2 119  ASP119     -0.2456
     70  OD2       43.7150  -28.6540    4.5250 O.co2 119  ASP119     -0.2456
     71  N         45.9420  -24.0810    6.7720 N.am  120  SER120     -0.1950
     72  CA        45.9900  -22.6230    6.8750 C.3   120  SER120      0.1924
     73  C         47.3380  -22.0620    7.3570 C.2   120  SER120      0.2314
     74  O         47.4520  -20.8690    7.6160 O.2   120  SER120     -0.2863
     75  CB        44.8500  -22.0690    7.7320 C.3   120  SER120      0.2116
     76  OG        43.5780  -22.5690    7.3450 O.3   120  SER120     -0.2180
     77  N         37.0470  -18.2470    9.1580 N.3   144  LEU144     -0.1231
     78  CA        36.8310  -19.4170    8.3120 C.3   144  LEU144      0.1693
     79  C         38.0750  -20.3040    8.2200 C.2   144  LEU144      0.2592
     80  O         37.9640  -21.5270    8.1210 O.2   144  LEU144     -0.2718
     81  CB        36.4270  -18.9550    6.8960 C.3   144  LEU144      0.0284
     82  CG        34.9830  -18.4440    6.7600 C.3   144  LEU144      0.0019
     83  CD1       34.8260  -17.5660    5.5010 C.3   144  LEU144      0.0001
     84  CD2       34.0410  -19.6630    6.7400 C.3   144  LEU144      0.0001
     85  N         39.2520  -19.6840    8.2590 N.am  145  ARG145     -0.1966
     86  CA        40.5200  -20.4040    8.1580 C.3   145  ARG145      0.1729
     87  C         40.9940  -21.0540    9.4660 C.2   145  ARG145      0.2617
     88  O         41.9710  -21.8050    9.4570 O.2   145  ARG145     -0.2715
     89  CB        41.6240  -19.4640    7.6530 C.3   145  ARG145      0.0348
     90  CG        41.4560  -19.0030    6.2080 C.3   145  ARG145      0.0492
     91  CD        41.8520  -20.0840    5.2090 C.3   145  ARG145      0.2205
     92  NE        41.8010  -19.5140    3.8660 N.pl3 145  ARG145     -0.0865
     93  CZ        42.5740  -19.8910    2.8490 C.cat 145  ARG145      0.5346
     94  NH1       43.4700  -20.8660    2.9910 N.pl3 145  ARG145      0.1354
     95  NH2       42.5020  -19.2170    1.7030 N.pl3 145  ARG145      0.1354
     96  N         40.3290  -20.7630   10.5860 N.am  146  THR146     -0.1937
     97  CA        40.7650  -21.3600   11.8510 C.3   146  THR146      0.2028
     98  C         40.5360  -22.8560   11.8890 C.2   146  THR146      0.2642
     99  O         39.6510  -23.3890   11.2140 O.2   146  THR146     -0.2714
    100  CB        40.0790  -20.7200   13.1040 C.3   146  THR146      0.1808
    101  OG1       38.6560  -20.8580   13.0130 O.3   146  THR146     -0.2208
    102  CG2       40.4700  -19.2510   13.2630 C.3   146  THR146      0.0379
    103  N         41.3330  -23.5430   12.6890 N.am  147  ARG147     -0.1963
    104  CA        41.1930  -24.9750   12.8030 C.3   147  ARG147      0.1729
    105  C         41.1380  -25.4530   14.2500 C.2   147  ARG147      0.2616
    106  O         42.0580  -25.1990   15.0380 O.2   147  ARG147     -0.2715
    107  CB        42.3450  -25.6710   12.1000 C.3   147  ARG147      0.0348
    108  CG        42.2030  -27.1730   12.0920 C.3   147  ARG147      0.0492
    109  CD        43.5280  -27.8210   12.3590 C.3   147  ARG147      0.2205
    110  NE        43.3930  -29.2480   12.6130 N.pl3 147  ARG147     -0.0865
    111  CZ        44.2620  -29.9560   13.3200 C.cat 147  ARG147      0.5346
    112  NH1       45.3270  -29.3700   13.8570 N.pl3 147  ARG147      0.1354
    113  NH2       44.0660  -31.2490   13.4910 N.pl3 147  ARG147      0.1354
    114  N         40.0220  -26.0790   14.6030 N.am  148  VAL148     -0.1963
    115  CA        39.8480  -26.6840   15.9190 C.3   148  VAL148      0.1727
    116  C         39.0450  -27.9500   15.6850 C.2   148  VAL148      0.2616
    117  O         37.9330  -27.8900   15.1540 O.2   148  VAL148     -0.2715
    118  CB        39.0880  -25.7950   16.9220 C.3   148  VAL148      0.0290
    119  CG1       39.0310  -26.5070   18.2640 C.3   148  VAL148      0.0023
    120  CG2       39.7900  -24.4500   17.0980 C.3   148  VAL148      0.0023
    121  N         39.6270  -29.0970   16.0290 N.am  149  LYS149     -0.1963
    122  CA        38.9410  -30.3710   15.8550 C.3   149  LYS149      0.1728
    123  C         37.6560  -30.4330   16.6780 C.2   149  LYS149      0.2616
    124  O         37.6450  -30.0420   17.8460 O.2   149  LYS149     -0.2715
    125  CB        39.8790  -31.5330   16.1830 C.3   149  LYS149      0.0311
    126  CG        41.1160  -31.5420   15.3000 C.3   149  LYS149      0.0038
    127  CD        41.6990  -32.9320   15.1700 C.3   149  LYS149      0.0206
    128  CE        43.1020  -32.9960   15.7200 C.3   149  LYS149      0.1093
    129  NZ        43.1430  -32.6700   17.1660 N.3   149  LYS149     -0.1314
    130  N         36.5680  -30.8670   16.0440 N.am  150  THR150     -0.1951
    131  CA        35.2660  -30.9550   16.7120 C.3   150  THR150      0.1897
    132  C         35.0820  -32.1920   17.5990 C.2   150  THR150      0.2313
    133  O         35.4330  -33.3100   17.2120 O.2   150  THR150     -0.2863
    134  CB        34.1000  -30.9560   15.6950 C.3   150  THR150      0.1794
    135  OG1       34.2390  -29.8450   14.8090 O.3   150  THR150     -0.2208
    136  CG2       32.7600  -30.8490   16.3960 C.3   150  THR150      0.0378
    137  N         29.5660  -32.8630   13.6020 N.3   170  VAL170     -0.1231
    138  CA        30.2680  -33.7730   14.4990 C.3   170  VAL170      0.1692
    139  C         31.7320  -33.9230   14.0820 C.2   170  VAL170      0.2593
    140  O         32.1310  -33.5150   12.9800 O.2   170  VAL170     -0.2718
    141  CB        29.5850  -35.1910   14.5520 C.3   170  VAL170      0.0266
    142  CG1       28.1790  -35.0890   15.1500 C.3   170  VAL170      0.0020
    143  CG2       29.5260  -35.8320   13.1520 C.3   170  VAL170      0.0020
    144  N         32.5420  -34.4560   14.9900 N.am  171  GLY171     -0.1942
    145  CA        33.9460  -34.6710   14.7010 C.3   171  GLY171      0.2014
    146  C         34.1760  -35.9060   13.8490 C.2   171  GLY171      0.2639
    147  O         33.5000  -36.9380   14.0300 O.2   171  GLY171     -0.2714
    148  N         35.1380  -35.7930   12.9300 N.am  172  GLY172     -0.1939
    149  CA        35.4780  -36.8800   12.0350 C.3   172  GLY172      0.2014
    150  C         36.7010  -37.6710   12.4360 C.2   172  GLY172      0.2638
    151  O         37.0020  -38.6920   11.8120 O.2   172  GLY172     -0.2714
    152  N         37.4420  -37.1930   13.4390 N.am  173  GLN173     -0.1977
    153  CA        38.6070  -37.9360   13.9240 C.3   173  GLN173      0.1601
    154  C         38.1240  -39.3010   14.4300 C.2   173  GLN173      0.2287
    155  O         36.9890  -39.4460   14.9000 O.2   173  GLN173     -0.2864
    156  CB        39.3480  -37.1740   15.0330 C.3   173  GLN173      0.0394
    157  CG        38.5580  -36.9580   16.3060 C.3   173  GLN173      0.0908
    158  CD        39.3600  -36.1940   17.3450 C.2   173  GLN173      0.2608
    159  OE1       40.3290  -36.7270   17.9030 O.2   173  GLN173     -0.2717
    160  NE2       38.9710  -34.9430   17.6070 N.am  173  GLN173     -0.0878
    161  N         35.3640  -31.3600   -1.3380 N.3   238  ASN238     -0.1225
    162  CA        35.9650  -30.1260   -0.8160 C.3   238  ASN238      0.1785
    163  C         37.4800  -29.8960   -1.0220 C.2   238  ASN238      0.2597
    164  O         38.2200  -30.7970   -1.4450 O.2   238  ASN238     -0.2718
    165  CB        35.5770  -30.0240    0.6900 C.3   238  ASN238      0.1169
    166  CG        35.7580  -28.6230    1.2710 C.2   238  ASN238      0.2627
    167  OD1       35.3760  -27.6170    0.6520 O.2   238  ASN238     -0.2716
    168  ND2       36.3460  -28.5490    2.4800 N.am  238  ASN238     -0.0877
    169  N         37.9300  -28.6860   -0.6890 N.am  239  LYS239     -0.1980
    170  CA        39.3260  -28.2860   -0.8320 C.3   239  LYS239      0.1596
    171  C         39.7500  -28.3830   -2.2800 C.2   239  LYS239      0.2287
    172  O         40.8910  -28.7320   -2.5830 O.2   239  LYS239     -0.2864
    173  CB        40.2430  -29.1040    0.0740 C.3   239  LYS239      0.0298
    174  CG        40.0320  -28.7800    1.5390 C.3   239  LYS239      0.0038
    175  CD        40.9800  -29.4630    2.5020 C.3   239  LYS239      0.0206
    176  CE        40.6400  -29.0080    3.9280 C.3   239  LYS239      0.1093
    177  NZ        41.4660  -29.6470    4.9720 N.3   239  LYS239     -0.1314
    178  N         40.4230  -25.9770   -4.1790 N.3   241  ASP241     -0.1225
    179  CA        41.4930  -24.9880   -4.3940 C.3   241  ASP241      0.1805
    180  C         42.8660  -25.6110   -4.1270 C.2   241  ASP241      0.2597
    181  O         43.7760  -25.5070   -4.9530 O.2   241  ASP241     -0.2718
    182  CB        41.2830  -23.7280   -3.5320 C.3   241  ASP241      0.1424
    183  CG        41.2550  -24.0170   -2.0230 C.2   241  ASP241      0.3668
    184  OD1       40.6800  -25.0450   -1.6030 O.co2 241  ASP241     -0.2456
    185  OD2       41.8020  -23.1840   -1.2620 O.co2 241  ASP241     -0.2456
    186  N         42.9840  -26.3380   -3.0190 N.am  242  LEU242     -0.1979
    187  CA        44.2370  -26.9980   -2.6740 C.3   242  LEU242      0.1596
    188  C         44.5380  -28.1440   -3.6490 C.2   242  LEU242      0.2287
    189  O         45.6930  -28.4090   -3.9690 O.2   242  LEU242     -0.2864
    190  CB        44.1870  -27.5270   -1.2300 C.3   242  LEU242      0.0297
    191  CG        43.8910  -26.4900   -0.1480 C.3   242  LEU242      0.0022
    192  CD1       43.9320  -27.1660    1.2180 C.3   242  LEU242      0.0001
    193  CD2       44.8810  -25.3470   -0.2200 C.3   242  LEU242      0.0001
    194  N         34.9620  -25.2200   -2.2360 N.3   294  CYS294     -0.1221
    195  CA        36.0880  -24.6470   -1.5290 C.3   294  CYS294      0.1808
    196  C         35.3190  -24.0590   -0.3390 C.2   294  CYS294      0.2601
    197  O         34.7090  -22.9860   -0.4590 O.2   294  CYS294     -0.2717
    198  CB        36.7630  -23.5330   -2.3000 C.3   294  CYS294      0.0970
    199  SG        37.9640  -22.6860   -1.2640 S.3   294  CYS294     -0.0800
    200  N         35.3190  -24.7760    0.7900 N.am  295  ALA295     -0.1965
    201  CA        34.5630  -24.3740    1.9750 C.3   295  ALA295      0.1728
    202  C         34.8540  -23.0040    2.5410 C.2   295  ALA295      0.2616
    203  O         33.9890  -22.4070    3.1900 O.2   295  ALA295     -0.2715
    204  CB        34.6800  -25.4420    3.0740 C.3   295  ALA295      0.0334
    205  N         36.0640  -22.5150    2.3340 N.am  296  THR296     -0.1951
    206  CA        36.4420  -21.2000    2.8420 C.3   296  THR296      0.1897
    207  C         35.9840  -20.0480    1.9070 C.2   296  THR296      0.2313
    208  O         36.0340  -18.8610    2.2770 O.2   296  THR296     -0.2863
    209  CB        37.9710  -21.1280    3.0480 C.3   296  THR296      0.1794
    210  OG1       38.6300  -21.6890    1.9000 O.3   296  THR296     -0.2208
    211  CG2       38.3820  -21.9210    4.2790 C.3   296  THR296      0.0378
@<TRIPOS>BOND
     1   181   180    2
     2   179   178    1
     3   179   180    1
     4   179   182    1
     5   180   186   am
     6   189   188    2
     7   188   187    1
     8   182   183    1
     9   186   187    1
    10   187   190    1
    11   172   171    2
    12   198   195    1
    13   198   199    1
    14   171   170    1
    15   194   195    1
    16   183   184   ar
    17   183   185   ar
    18   195   196    1
    19   164   163    2
    20   161   162    1
    21   190   191    1
    22   163   162    1
    23   163   169   am
    24   170   169    1
    25   170   173    1
    26   162   165    1
    27   197   196    2
    28   196   200   am
    29   193   191    1
    30   191   192    1
    31   173   174    1
    32   167   166    2
    33   165   166    1
    34   200   201    1
    35   166   168   am
    36   174   175    1
    37    95    93    1
    38   210   209    1
    39   207   208    2
    40   207   206    1
    41   201   202    1
    42   201   204    1
    43   205   202   am
    44   205   206    1
    45   175   176    1
    46   202   203    2
    47   206   209    1
    48    93    94    1
    49    93    92    2
    50   209   211    1
    51    92    91    1
    52   176   177    1
    53    17    16    2
    54    69    68   ar
    55    70    68   ar
    56    66    65    2
    57    68    67    1
    58    67    64    1
    59    91    90    1
    60    16    15    1
    61    16    20   am
    62    18    15    1
    63    18    19    1
    64    83    82    1
    65    15    14    1
    66    65    64    1
    67    65    71   am
    68    64    63    1
    69    21    20    1
    70    21    22    1
    71     8     7    2
    72    45    43    1
    73    90    89    1
    74    23    22    2
    75    22    24   am
    76    84    82    1
    77    82    81    1
    78    71    72    1
    79    14     7   am
    80    72    73    1
    81    72    75    1
    82    81    78    1
    83    43    44    1
    84    43    40    1
    85     7     6    1
    86    63    57   am
    87    42    41    2
    88    41    40    1
    89    58    57    2
    90    76    75    1
    91    73    74    2
    92    24    25    1
    93    89    86    1
    94    57    56    1
    95    40    39    1
    96    25    26    1
    97    25    28    1
    98    29    28    1
    99    29    30    1
   100    80    79    2
   101     9     6    1
   102     9    10    1
   103    86    85    1
   104    86    87    1
   105     4     3    2
   106    79    85   am
   107    79    78    1
   108    78    77    1
   109     6     5    1
   110    27    26    2
   111    48    49    2
   112    48    47    1
   113    39    35   am
   114    26    33   am
   115    30    31    1
   116    56    55    1
   117    56    59    1
   118     3     5   am
   119     3     2    1
   120    10    11    1
   121    88    87    2
   122    87    96   am
   123     1     2    1
   124    46    47    1
   125    32    31    1
   126    33    34    1
   127    47    50    1
   128    50    51    1
   129    35    36    2
   130    35    34    1
   131    59    60    1
   132    12    11   ar
   133    11    13   ar
   134    34    37    1
   135    96    97    1
   136    52    51    1
   137    52    53    1
   138    99    98    2
   139    60    61    2
   140    60    62   am
   141    37    38    1
   142   151   150    2
   143    97    98    1
   144    97   100    1
   145    98   103   am
   146   149   150    1
   147   149   148    1
   148   108   107    1
   149   108   109    1
   150   107   104    1
   151    53    54    1
   152   109   110    1
   153   150   152   am
   154   110   111    2
   155   103   104    1
   156   104   105    1
   157   148   146   am
   158   140   139    2
   159   101   100    1
   160   100   102    1
   161   143   141    1
   162   111   113    1
   163   111   112    1
   164   152   153    1
   165   137   138    1
   166   146   147    2
   167   146   145    1
   168   153   154    1
   169   153   156    1
   170   139   138    1
   171   139   144   am
   172   105   114   am
   173   105   106    2
   174   154   155    2
   175   138   141    1
   176   141   142    1
   177   114   115    1
   178   145   144    1
   179   135   134    1
   180   156   157    1
   181   117   116    2
   182   127   126    1
   183   127   128    1
   184   126   125    1
   185   116   115    1
   186   116   121   am
   187   134   136    1
   188   134   131    1
   189   128   129    1
   190   122   121    1
   191   122   125    1
   192   122   123    1
   193   115   118    1
   194   130   123   am
   195   130   131    1
   196   157   158    1
   197   123   124    2
   198   131   132    1
   199   118   120    1
   200   118   119    1
   201   133   132    2
   202   158   160   am
   203   158   159    2
