@<TRIPOS>MOLECULE
tmp/1ciwC00.pdb
 80 74 0 0 0
SMALL
GASTEIGER

@<TRIPOS>ATOM
      1  N         51.7100  -13.1550   25.3990 N.3    80  ASP80      -0.1239
      2  CA        51.6360  -11.7550   25.0120 C.3    80  ASP80       0.1674
      3  C         50.1910  -11.4460   24.6540 C.2    80  ASP80       0.2266
      4  O         49.5690  -12.1680   23.8740 O.2    80  ASP80      -0.2867
      5  CB        52.4840  -11.4970   23.7720 C.3    80  ASP80       0.1410
      6  CG        53.9330  -11.2510   24.0950 C.2    80  ASP80       0.3668
      7  OD1       54.4740  -11.9340   24.9940 O.co2  80  ASP80      -0.2456
      8  OD2       54.5340  -10.3730   23.4380 O.co2  80  ASP80      -0.2456
      9  N         47.7600  -10.4390   22.5800 N.3    82  ALA82      -0.1231
     10  CA        47.6640  -10.1480   21.1560 C.3    82  ALA82       0.1694
     11  C         46.5880  -11.0710   20.5990 C.2    82  ALA82       0.2592
     12  O         46.2060  -12.0310   21.2710 O.2    82  ALA82      -0.2718
     13  CB        48.9930  -10.4190   20.4910 C.3    82  ALA82       0.0304
     14  N         46.0710  -10.7960   19.3960 N.am   83  ASP83      -0.1974
     15  CA        46.4590   -9.6670   18.5570 C.3    83  ASP83       0.1709
     16  C         45.4240   -8.5420   18.4450 C.2    83  ASP83       0.2293
     17  O         45.7530   -7.4490   17.9890 O.2    83  ASP83      -0.2864
     18  CB        46.8010  -10.1590   17.1560 C.3    83  ASP83       0.1436
     19  CG        48.1230  -10.8800   17.1030 C.2    83  ASP83       0.3671
     20  OD1       48.1920  -12.0220   17.5720 O.co2  83  ASP83      -0.2456
     21  OD2       49.1020  -10.3020   16.5870 O.co2  83  ASP83      -0.2456
     22  N         47.5750  -14.3040   14.1030 N.3   103  GLY103     -0.1210
     23  CA        48.4270  -13.1780   14.4520 C.3   103  GLY103      0.1956
     24  C         47.9640  -11.8240   13.9470 C.2   103  GLY103      0.2612
     25  O         46.7800  -11.4970   14.0130 O.2   103  GLY103     -0.2717
     26  N         48.8970  -11.0670   13.3930 N.am  104  GLY104     -0.1956
     27  CA        48.6180   -9.7380   12.8830 C.3   104  GLY104      0.1869
     28  C         47.6230   -9.6170   11.7470 C.2   104  GLY104      0.2309
     29  O         47.2600   -8.5020   11.3700 O.2   104  GLY104     -0.2863
     30  N         48.8020   -5.1800   19.2780 N.3   125  TYR125     -0.1241
     31  CA        50.1690   -5.6070   19.0400 C.3   125  TYR125      0.1605
     32  C         50.7080   -4.9400   17.7910 C.2   125  TYR125      0.2264
     33  O         50.0450   -4.9110   16.7440 O.2   125  TYR125     -0.2867
     34  CB        50.2610   -7.1150   18.8990 C.3   125  TYR125      0.0534
     35  CG        51.6780   -7.5740   18.7290 C.ar  125  TYR125     -0.0201
     36  CD1       52.4970   -7.7370   19.7810 C.ar  125  TYR125     -0.0009
     37  CD2       52.2450   -7.7400   17.5140 C.ar  125  TYR125     -0.0009
     38  CE1       53.8440   -8.0760   19.6260 C.ar  125  TYR125      0.0417
     39  CE2       53.5940   -8.0780   17.3660 C.ar  125  TYR125      0.0417
     40  CZ        54.3920   -8.2290   18.4220 C.ar  125  TYR125      0.1957
     41  OH        55.7320   -8.5330   18.2900 O.3   125  TYR125     -0.2866
     42  N         52.6860   -4.9170   14.6420 N.3   127  ASN127     -0.1240
     43  CA        53.2840   -5.7340   13.5790 C.3   127  ASN127      0.1653
     44  C         53.9570   -4.8000   12.5960 C.2   127  ASN127      0.2266
     45  O         53.2880   -4.2250   11.7370 O.2   127  ASN127     -0.2867
     46  CB        52.2190   -6.5130   12.8000 C.3   127  ASN127      0.1155
     47  CG        51.4710   -7.4810   13.6550 C.2   127  ASN127      0.2627
     48  OD1       50.5410   -7.1080   14.3510 O.2   127  ASN127     -0.2716
     49  ND2       51.8800   -8.7370   13.6080 N.am  127  ASN127     -0.0877
     50  N         55.5090   -5.4330   10.0450 N.3   129  GLU129     -0.1245
     51  CA        55.3020   -5.8950    8.6760 C.3   129  GLU129      0.1567
     52  C         54.0330   -5.2830    8.0580 C.2   129  GLU129      0.2260
     53  O         53.8800   -5.2350    6.8290 O.2   129  GLU129     -0.2867
     54  CB        55.2730   -7.4330    8.6050 C.3   129  GLU129      0.0388
     55  CG        54.1820   -8.1120    9.4140 C.3   129  GLU129      0.1160
     56  CD        54.6120   -8.4880   10.8300 C.2   129  GLU129      0.3649
     57  OE1       55.5350   -7.8400   11.3730 O.co2 129  GLU129     -0.2457
     58  OE2       54.0260   -9.4420   11.4100 O.co2 129  GLU129     -0.2457
     59  N         48.5560  -15.8240   18.0150 N.3   211  SER211     -0.1202
     60  CA        49.6600  -16.5190   17.3660 C.3   211  SER211      0.2020
     61  C         50.1190  -17.6800   18.2500 C.2   211  SER211      0.2619
     62  O         49.3050  -18.3210   18.9150 O.2   211  SER211     -0.2717
     63  CB        50.8090  -15.5380   17.1140 C.3   211  SER211      0.2103
     64  OG        51.2790  -15.0000   18.3350 O.3   211  SER211     -0.2182
     65  N         51.4160  -17.9710   18.2380 N.am  212  LEU212     -0.1965
     66  CA        51.9490  -19.0460   19.0650 C.3   212  LEU212      0.1728
     67  C         52.2170  -18.4630   20.4460 C.2   212  LEU212      0.2617
     68  O         51.7890  -19.0210   21.4570 O.2   212  LEU212     -0.2715
     69  CB        53.2500  -19.5820   18.4660 C.3   212  LEU212      0.0311
     70  CG        53.7300  -20.9820   18.8830 C.3   212  LEU212      0.0022
     71  CD1       54.9760  -21.3000   18.0980 C.3   212  LEU212      0.0001
     72  CD2       54.0280  -21.1000   20.3730 C.3   212  LEU212      0.0001
     73  N         52.9230  -17.3340   20.4760 N.am  213  GLY213     -0.1940
     74  CA        53.2500  -16.6830   21.7330 C.3   213  GLY213      0.2014
     75  C         52.3050  -15.5760   22.1530 C.2   213  GLY213      0.2639
     76  O         52.3740  -15.0890   23.2890 O.2   213  GLY213     -0.2714
     77  N         51.4290  -15.1690   21.2430 N.am  214  GLY214     -0.1954
     78  CA        50.4890  -14.1120   21.5440 C.3   214  GLY214      0.1869
     79  C         49.0800  -14.6450   21.6260 C.2   214  GLY214      0.2309
     80  O         48.5460  -15.1400   20.6370 O.2   214  GLY214     -0.2863
@<TRIPOS>BOND
     1    53    52    2
     2    52    51    1
     3    54    51    1
     4    54    55    1
     5    51    50    1
     6    55    56    1
     7    56    57   ar
     8    56    58   ar
     9    29    28    2
    10    45    44    2
    11    28    27    1
    12    44    43    1
    13    46    43    1
    14    46    47    1
    15    27    26    1
    16    26    24   am
    17    43    42    1
    18    49    47   am
    19    47    48    2
    20    24    25    2
    21    24    23    1
    22    22    23    1
    23    21    19   ar
    24    33    32    2
    25    19    18    1
    26    19    20   ar
    27    63    60    1
    28    63    64    1
    29    18    15    1
    30    60    59    1
    31    60    61    1
    32    39    37   ar
    33    39    40   ar
    34    37    35   ar
    35    32    31    1
    36    17    16    2
    37    71    70    1
    38    65    61   am
    39    65    66    1
    40    61    62    2
    41    41    40    1
    42    40    38   ar
    43    16    15    1
    44    69    70    1
    45    69    66    1
    46    15    14    1
    47    35    34    1
    48    35    36   ar
    49    70    72    1
    50    34    31    1
    51    31    30    1
    52    66    67    1
    53    14    11   am
    54    38    36   ar
    55    67    73   am
    56    67    68    2
    57    73    74    1
    58    13    10    1
    59    11    10    1
    60    11    12    2
    61    80    79    2
    62    10     9    1
    63    77    78    1
    64    77    75   am
    65    78    79    1
    66    74    75    1
    67    75    76    2
    68     8     6   ar
    69     5     6    1
    70     5     2    1
    71     4     3    2
    72     6     7   ar
    73     3     2    1
    74     2     1    1
