@<TRIPOS>MOLECULE
tmp/1cizA00.pdb
 220 221 0 0 0
SMALL
GASTEIGER

@<TRIPOS>ATOM
      1  N         25.4040   35.1860   -5.4670 N.3     4  PHE4       -0.1241
      2  CA        26.5050   34.6690   -4.6750 C.3     4  PHE4        0.1605
      3  C         26.8970   33.2910   -5.1750 C.2     4  PHE4        0.2264
      4  O         26.0610   32.5930   -5.7400 O.2     4  PHE4       -0.2867
      5  CB        26.0750   34.5200   -3.2220 C.3     4  PHE4        0.0534
      6  CG        25.9470   35.8410   -2.5180 C.ar    4  PHE4       -0.0203
      7  CD1       27.1120   36.4600   -2.0050 C.ar    4  PHE4       -0.0042
      8  CD2       24.6650   36.4150   -2.3710 C.ar    4  PHE4       -0.0042
      9  CE1       26.9830   37.6830   -1.3160 C.ar    4  PHE4       -0.0003
     10  CE2       24.5440   37.6420   -1.6870 C.ar    4  PHE4       -0.0003
     11  CZ        25.7020   38.2530   -1.1640 C.ar    4  PHE4       -0.0000
     12  N         34.3130   54.0060    5.2330 N.3    80  ASN80      -0.1225
     13  CA        34.6010   52.6440    4.7580 C.3    80  ASN80       0.1785
     14  C         33.3400   51.7500    4.6580 C.2    80  ASN80       0.2597
     15  O         32.3630   52.1650    4.0570 O.2    80  ASN80      -0.2718
     16  CB        35.8180   52.0660    5.5270 C.3    80  ASN80       0.1169
     17  CG        37.0690   52.8940    5.2340 C.2    80  ASN80       0.2627
     18  OD1       37.4490   53.1120    4.0920 O.2    80  ASN80      -0.2716
     19  ND2       37.6670   53.3850    6.3230 N.am   80  ASN80      -0.0877
     20  N         33.3420   50.5450    5.2650 N.am   81  VAL81      -0.1966
     21  CA        32.1090   49.7280    5.1990 C.3    81  VAL81       0.1727
     22  C         30.9870   50.3870    5.9710 C.2    81  VAL81       0.2616
     23  O         31.1260   50.7320    7.1240 O.2    81  VAL81      -0.2715
     24  CB        32.3630   48.3120    5.7550 C.3    81  VAL81       0.0290
     25  CG1       31.0860   47.4570    5.8970 C.3    81  VAL81       0.0023
     26  CG2       33.4170   47.5960    4.9120 C.3    81  VAL81       0.0023
     27  N         29.8610   50.5320    5.2950 N.am   82  LEU82      -0.1963
     28  CA        28.7190   51.2090    5.9210 C.3    82  LEU82       0.1728
     29  C         27.6710   50.2830    6.5130 C.2    82  LEU82       0.2616
     30  O         26.9440   50.6310    7.4350 O.2    82  LEU82      -0.2715
     31  CB        28.0350   52.1030    4.9060 C.3    82  LEU82       0.0311
     32  CG        28.9670   52.9730    4.0630 C.3    82  LEU82       0.0022
     33  CD1       28.1900   53.4860    2.8630 C.3    82  LEU82       0.0001
     34  CD2       29.6560   54.0870    4.8700 C.3    82  LEU82       0.0001
     35  N         27.6370   49.0790    5.9160 N.am   83  ALA83      -0.1963
     36  CA        26.7110   48.0320    6.3340 C.3    83  ALA83       0.1728
     37  C         27.1210   46.7540    5.6350 C.2    83  ALA83       0.2616
     38  O         27.9560   46.7990    4.7450 O.2    83  ALA83      -0.2715
     39  CB        25.2720   48.3930    5.9400 C.3    83  ALA83       0.0334
     40  N         26.5090   45.6320    6.0670 N.am   84  HIS84      -0.1959
     41  CA        26.6220   44.3790    5.3180 C.3    84  HIS84       0.1787
     42  C         25.4570   43.4620    5.5930 C.2    84  HIS84       0.2620
     43  O         24.7610   43.5960    6.5850 O.2    84  HIS84      -0.2715
     44  CB        27.9580   43.6560    5.5420 C.3    84  HIS84       0.0785
     45  CG        28.2720   43.3390    6.9890 C.ar   84  HIS84       0.0821
     46  ND1       29.4870   43.5520    7.5290 N.ar   84  HIS84      -0.2267
     47  CD2       27.4520   42.8220    7.9810 C.ar   84  HIS84       0.1154
     48  CE1       29.4650   43.1880    8.8300 C.ar   84  HIS84       0.1986
     49  NE2       28.2110   42.7430    9.0890 N.ar   84  HIS84      -0.2212
     50  N         25.2710   42.5130    4.6740 N.am   85  ALA85      -0.1977
     51  CA        24.1790   41.5660    4.8650 C.3    85  ALA85       0.1597
     52  C         24.5590   40.2320    4.2880 C.2    85  ALA85       0.2287
     53  O         25.4140   40.1520    3.4130 O.2    85  ALA85      -0.2864
     54  CB        22.8890   42.0450    4.2000 C.3    85  ALA85       0.0319
     55  N         18.8510   53.9930    0.8290 N.3   115  LEU115     -0.1231
     56  CA        19.6610   53.4420   -0.2640 C.3   115  LEU115      0.1693
     57  C         20.5650   52.3040    0.1610 C.2   115  LEU115      0.2591
     58  O         20.6870   51.3170   -0.5460 O.2   115  LEU115     -0.2718
     59  CB        20.5290   54.4970   -0.9550 C.3   115  LEU115      0.0284
     60  CG        19.7320   55.6230   -1.6300 C.3   115  LEU115      0.0019
     61  CD1       20.6550   56.7810   -2.0260 C.3   115  LEU115      0.0001
     62  CD2       18.8740   55.0850   -2.7800 C.3   115  LEU115      0.0001
     63  N         21.1660   52.4820    1.3540 N.am  116  VAL116     -0.1980
     64  CA        21.9990   51.3840    1.8490 C.3   116  VAL116      0.1595
     65  C         21.1770   50.1560    2.1640 C.2   116  VAL116      0.2287
     66  O         21.5570   49.0610    1.7780 O.2   116  VAL116     -0.2864
     67  CB        22.8760   51.8040    3.0430 C.3   116  VAL116      0.0276
     68  CG1       23.7040   50.6600    3.6230 C.3   116  VAL116      0.0022
     69  CG2       23.8030   52.9490    2.6200 C.3   116  VAL116      0.0022
     70  N         20.0220   48.1710   -0.9780 N.3   119  HIS119     -0.1226
     71  CA        21.1910   47.3720   -1.3670 C.3   119  HIS119      0.1752
     72  C         21.4500   46.1170   -0.5160 C.2   119  HIS119      0.2595
     73  O         21.6910   45.0340   -1.0240 O.2   119  HIS119     -0.2718
     74  CB        22.3570   48.3320   -1.2990 C.3   119  HIS119      0.0759
     75  CG        23.6370   47.7090   -1.7790 C.ar  119  HIS119      0.0818
     76  ND1       24.0820   47.8490   -3.0350 N.ar  119  HIS119     -0.2268
     77  CD2       24.5840   47.0060   -1.0340 C.ar  119  HIS119      0.1154
     78  CE1       25.3060   47.2560   -3.1290 C.ar  119  HIS119      0.1986
     79  NE2       25.5970   46.7500   -1.9030 N.ar  119  HIS119     -0.2212
     80  N         21.3790   46.3280    0.8280 N.am  120  GLU120     -0.1979
     81  CA        21.5840   45.2290    1.7750 C.3   120  GLU120      0.1602
     82  C         20.5240   44.1570    1.7240 C.2   120  GLU120      0.2287
     83  O         20.8480   42.9800    1.8190 O.2   120  GLU120     -0.2864
     84  CB        21.7650   45.7280    3.2200 C.3   120  GLU120      0.0415
     85  CG        22.9240   46.7070    3.4590 C.3   120  GLU120      0.1163
     86  CD        24.2710   46.1720    2.9950 C.2   120  GLU120      0.3649
     87  OE1       24.4450   44.9580    2.9490 O.co2 120  GLU120     -0.2457
     88  OE2       25.1540   46.9840    2.6880 O.co2 120  GLU120     -0.2457
     89  N         21.3440   41.8490   -1.0290 N.3   123  HIS123     -0.1241
     90  CA        22.1880   40.7700   -0.4910 C.3   123  HIS123      0.1621
     91  C         21.4710   39.7000    0.3130 C.2   123  HIS123      0.2264
     92  O         21.7260   38.5190    0.1270 O.2   123  HIS123     -0.2867
     93  CB        23.2860   41.2990    0.4250 C.3   123  HIS123      0.0745
     94  CG        24.3380   42.0130   -0.3680 C.ar  123  HIS123      0.0817
     95  ND1       24.7820   41.5870   -1.5650 N.ar  123  HIS123     -0.2268
     96  CD2       25.0120   43.1720    0.0070 C.ar  123  HIS123      0.1154
     97  CE1       25.7360   42.4640   -1.9700 C.ar  123  HIS123      0.1986
     98  NE2       25.8620   43.4210   -1.0060 N.ar  123  HIS123     -0.2212
     99  N         24.4420   39.2840   -5.3110 N.3   128  PHE128     -0.1227
    100  CA        25.7860   39.8200   -5.0840 C.3   128  PHE128      0.1736
    101  C         25.9790   41.1540   -5.8420 C.2   128  PHE128      0.2595
    102  O         25.0020   41.8520   -6.0730 O.2   128  PHE128     -0.2718
    103  CB        26.7740   38.6810   -5.4310 C.3   128  PHE128      0.0547
    104  CG        28.2080   38.9940   -5.0590 C.ar  128  PHE128     -0.0202
    105  CD1       28.5280   39.4840   -3.7780 C.ar  128  PHE128     -0.0042
    106  CD2       29.2060   38.8170   -6.0380 C.ar  128  PHE128     -0.0042
    107  CE1       29.8600   39.8380   -3.4830 C.ar  128  PHE128     -0.0003
    108  CE2       30.5370   39.1800   -5.7430 C.ar  128  PHE128     -0.0003
    109  CZ        30.8500   39.6940   -4.4720 C.ar  128  PHE128     -0.0000
    110  N         27.2400   41.4920   -6.2050 N.am  129  HIS129     -0.1975
    111  CA        27.4970   42.7730   -6.8600 C.3   129  HIS129      0.1656
    112  C         27.4060   42.7830   -8.3710 C.2   129  HIS129      0.2291
    113  O         27.8390   41.8720   -9.0760 O.2   129  HIS129     -0.2864
    114  CB        28.8570   43.3100   -6.4360 C.3   129  HIS129      0.0771
    115  CG        28.7980   43.7410   -4.9860 C.ar  129  HIS129      0.0820
    116  ND1       29.8140   43.5970   -4.1110 N.ar  129  HIS129     -0.2267
    117  CD2       27.7290   44.3430   -4.3370 C.ar  129  HIS129      0.1154
    118  CE1       29.4150   44.0990   -2.9050 C.ar  129  HIS129      0.1986
    119  NE2       28.1400   44.5470   -3.0720 N.ar  129  HIS129     -0.2212
    120  N         24.7590   51.7660  -12.8540 N.3   134  GLU134     -0.1231
    121  CA        23.4470   52.2750  -12.4790 C.3   134  GLU134      0.1699
    122  C         22.6490   51.3860  -11.5210 C.2   134  GLU134      0.2592
    123  O         21.5840   51.7690  -11.0500 O.2   134  GLU134     -0.2718
    124  CB        22.6090   52.5780  -13.7280 C.3   134  GLU134      0.0402
    125  CG        23.1100   53.7380  -14.6130 C.3   134  GLU134      0.1161
    126  CD        22.1450   54.0880  -15.7670 C.2   134  GLU134      0.3649
    127  OE1       21.1150   53.4180  -15.9440 O.co2 134  GLU134     -0.2457
    128  OE2       22.4270   55.0470  -16.5030 O.co2 134  GLU134     -0.2457
    129  N         23.1920   50.1760  -11.2810 N.am  135  ALA135     -0.1966
    130  CA        22.4250   49.2000  -10.5040 C.3   135  ALA135      0.1728
    131  C         22.4420   49.5220   -9.0300 C.2   135  ALA135      0.2616
    132  O         23.4060   50.0460   -8.4930 O.2   135  ALA135     -0.2715
    133  CB        22.9760   47.7780  -10.6860 C.3   135  ALA135      0.0334
    134  N         21.3280   49.1450   -8.3840 N.am  136  LEU136     -0.1977
    135  CA        21.3030   49.1850   -6.9190 C.3   136  LEU136      0.1596
    136  C         22.4350   48.3660   -6.2980 C.2   136  LEU136      0.2287
    137  O         23.0640   48.7930   -5.3430 O.2   136  LEU136     -0.2864
    138  CB        19.9150   48.7640   -6.4340 C.3   136  LEU136      0.0297
    139  CG        19.7810   48.6720   -4.9260 C.3   136  LEU136      0.0022
    140  CD1       20.1830   49.9770   -4.2140 C.3   136  LEU136      0.0001
    141  CD2       18.3640   48.2210   -4.5830 C.3   136  LEU136      0.0001
    142  N         25.4090   47.7000   -7.4520 N.3   138  TYR138     -0.1228
    143  CA        26.7910   48.1430   -7.7020 C.3   138  TYR138      0.1721
    144  C         27.5640   48.2680   -6.3830 C.2   138  TYR138      0.2437
    145  O         27.0010   48.6190   -5.3580 O.2   138  TYR138     -0.2733
    146  CB        26.7250   49.4710   -8.4940 C.3   138  TYR138      0.0547
    147  CG        28.0600   49.8820   -9.0740 C.ar  138  TYR138     -0.0200
    148  CD1       28.6040   49.1480  -10.1600 C.ar  138  TYR138     -0.0009
    149  CD2       28.7260   50.9910   -8.5190 C.ar  138  TYR138     -0.0009
    150  CE1       29.8530   49.5110  -10.6870 C.ar  138  TYR138      0.0417
    151  CE2       29.9520   51.3840   -9.0820 C.ar  138  TYR138      0.0417
    152  CZ        30.5030   50.6340  -10.1440 C.ar  138  TYR138      0.1957
    153  OH        31.7240   51.0200  -10.6580 O.3   138  TYR138     -0.2866
    154  N         28.8590   47.8820   -6.4000 N.am  139  PRO139     -0.2718
    155  CA        29.6170   47.7820   -5.1380 C.3   139  PRO139      0.1535
    156  C         30.0790   49.0520   -4.4580 C.2   139  PRO139      0.2598
    157  O         30.5400   48.9950   -3.3250 O.2   139  PRO139     -0.2715
    158  CB        30.8250   46.9180   -5.5150 C.3   139  PRO139      0.0310
    159  CG        31.0390   47.2150   -7.0080 C.3   139  PRO139      0.0237
    160  CD        29.6160   47.3220   -7.5350 C.3   139  PRO139      0.0939
    161  N         29.9820   50.1640   -5.1930 N.am  140  LEU140     -0.1964
    162  CA        30.4510   51.4090   -4.5950 C.3   140  LEU140      0.1728
    163  C         29.3100   52.3570   -4.2350 C.2   140  LEU140      0.2616
    164  O         28.4370   52.6620   -5.0390 O.2   140  LEU140     -0.2715
    165  CB        31.4360   52.0880   -5.5570 C.3   140  LEU140      0.0311
    166  CG        32.6990   51.2810   -5.9420 C.3   140  LEU140      0.0022
    167  CD1       33.5020   51.9590   -7.0720 C.3   140  LEU140      0.0001
    168  CD2       33.5730   50.9600   -4.7190 C.3   140  LEU140      0.0001
    169  N         29.3640   52.8120   -2.9660 N.am  141  TYR141     -0.1960
    170  CA        28.3180   53.6900   -2.4180 C.3   141  TYR141      0.1771
    171  C         28.3000   55.0300   -3.1060 C.2   141  TYR141      0.2619
    172  O         29.3280   55.6670   -3.3140 O.2   141  TYR141     -0.2715
    173  CB        28.4630   53.8670   -0.8820 C.3   141  TYR141      0.0574
    174  CG        27.4020   54.8070   -0.3270 C.ar  141  TYR141     -0.0198
    175  CD1       26.0910   54.3450   -0.1130 C.ar  141  TYR141     -0.0009
    176  CD2       27.7550   56.1460   -0.0750 C.ar  141  TYR141     -0.0009
    177  CE1       25.0940   55.2670    0.2730 C.ar  141  TYR141      0.0417
    178  CE2       26.7660   57.0650    0.3290 C.ar  141  TYR141      0.0417
    179  CZ        25.4420   56.6210    0.4640 C.ar  141  TYR141      0.1957
    180  OH        24.4570   57.5370    0.7760 O.3   141  TYR141     -0.2866
    181  N         27.0460   55.4070   -3.4010 N.am  142  HIS142     -0.1973
    182  CA        26.7550   56.7710   -3.8190 C.3   142  HIS142      0.1656
    183  C         25.3100   57.0800   -3.4950 C.2   142  HIS142      0.2291
    184  O         24.5230   56.1980   -3.1800 O.2   142  HIS142     -0.2864
    185  CB        27.0770   56.9900   -5.3020 C.3   142  HIS142      0.0771
    186  CG        26.1130   56.2330   -6.1680 C.ar  142  HIS142      0.0820
    187  ND1       24.9280   56.7400   -6.5280 N.ar  142  HIS142     -0.2267
    188  CD2       26.2430   54.9490   -6.7000 C.ar  142  HIS142      0.1154
    189  CE1       24.2880   55.8060   -7.2830 C.ar  142  HIS142      0.1986
    190  NE2       25.0940   54.7130   -7.3820 N.ar  142  HIS142     -0.2212
    191  N         21.9990   60.2070   -4.5200 N.3   144  LEU144     -0.1245
    192  CA        21.4110   60.9120   -5.6430 C.3   144  LEU144      0.1561
    193  C         21.1930   62.3370   -5.2240 C.2   144  LEU144      0.2260
    194  O         20.9060   62.6070   -4.0690 O.2   144  LEU144     -0.2867
    195  CB        20.0410   60.3410   -5.9720 C.3   144  LEU144      0.0270
    196  CG        20.0570   58.8770   -6.3690 C.3   144  LEU144      0.0019
    197  CD1       18.6490   58.2980   -6.2880 C.3   144  LEU144      0.0001
    198  CD2       20.7200   58.6540   -7.7380 C.3   144  LEU144      0.0001
    199  N         15.2010   57.8890   -7.6280 N.3   150  PHE150     -0.1227
    200  CA        15.5700   56.4790   -7.4670 C.3   150  PHE150      0.1736
    201  C         14.6640   55.5290   -8.2250 C.2   150  PHE150      0.2595
    202  O         13.4460   55.5540   -8.1100 O.2   150  PHE150     -0.2718
    203  CB        15.6410   56.0590   -5.9790 C.3   150  PHE150      0.0547
    204  CG        16.0310   54.5930   -5.8360 C.ar  150  PHE150     -0.0202
    205  CD1       17.3830   54.2120   -5.9670 C.ar  150  PHE150     -0.0042
    206  CD2       15.0250   53.6270   -5.5930 C.ar  150  PHE150     -0.0042
    207  CE1       17.7310   52.8460   -5.8890 C.ar  150  PHE150     -0.0003
    208  CE2       15.3720   52.2680   -5.5060 C.ar  150  PHE150     -0.0003
    209  CZ        16.7190   51.8880   -5.6650 C.ar  150  PHE150     -0.0000
    210  N         15.3710   54.6710   -8.9770 N.am  151  ARG151     -0.1980
    211  CA        14.7120   53.5290   -9.5950 C.3   151  ARG151      0.1597
    212  C         15.6620   52.3580   -9.6470 C.2   151  ARG151      0.2287
    213  O         16.8160   52.4810  -10.0300 O.2   151  ARG151     -0.2864
    214  CB        14.2350   53.8710  -11.0030 C.3   151  ARG151      0.0334
    215  CG        12.7200   53.7560  -11.1130 C.3   151  ARG151      0.0492
    216  CD        12.2020   54.4750  -12.3590 C.3   151  ARG151      0.2205
    217  NE        12.7140   53.8960  -13.6120 N.pl3 151  ARG151     -0.0865
    218  CZ        12.4020   54.4700  -14.8050 C.cat 151  ARG151      0.5346
    219  NH1       11.7100   55.6210  -14.8820 N.pl3 151  ARG151      0.1354
    220  NH2       12.7970   53.8900  -15.9390 N.pl3 151  ARG151      0.1354
@<TRIPOS>BOND
     1   128   126   ar
     2   127   126   ar
     3   220   218    1
     4   126   125    1
     5   219   218    1
     6   218   217    2
     7   125   124    1
     8   124   121    1
     9   217   216    1
    10   120   121    1
    11   121   122    1
    12   216   215    1
    13   122   129   am
    14   122   123    2
    15   129   130    1
    16   215   214    1
    17   214   211    1
    18   150   148   ar
    19   150   152   ar
    20   133   130    1
    21   153   152    1
    22   130   131    1
    23   148   147   ar
    24   152   151   ar
    25   213   212    2
    26   212   211    1
    27   211   210    1
    28   151   149   ar
    29   113   112    2
    30   147   149   ar
    31   147   146    1
    32   131   132    2
    33   131   134   am
    34   210   201   am
    35   146   143    1
    36   134   135    1
    37   112   111    1
    38   201   202    2
    39   201   200    1
    40   198   196    1
    41   143   142    1
    42   143   144    1
    43   199   200    1
    44   160   159    1
    45   160   154    1
    46   200   203    1
    47   190   189   ar
    48   190   188   ar
    49   189   187   ar
    50   167   166    1
    51   159   158    1
    52   135   138    1
    53   135   136    1
    54   111   114    1
    55   111   110    1
    56   188   186   ar
    57   187   186   ar
    58   114   115    1
    59   138   139    1
    60   154   144   am
    61   154   155    1
    62   144   145    2
    63   196   197    1
    64   196   195    1
    65   136   137    2
    66   110   101   am
    67   186   185    1
    68   102   101    2
    69   106   108   ar
    70   106   104   ar
    71   203   204    1
    72   195   192    1
    73   205   207   ar
    74   205   204   ar
    75   166   165    1
    76   166   168    1
    77   207   209   ar
    78   101   100    1
    79   204   206   ar
    80   108   109   ar
    81     4     3    2
    82   209   208   ar
    83   192   193    1
    84   192   191    1
    85   206   208   ar
    86   165   162    1
    87   158   155    1
    88     1     2    1
    89   103   100    1
    90   103   104    1
    91    99   100    1
    92   185   182    1
    93   193   194    2
    94   161   162    1
    95   161   156   am
    96     3     2    1
    97   155   156    1
    98   104   105   ar
    99   164   163    2
   100   115   117   ar
   101   115   116   ar
   102   139   141    1
   103   139   140    1
   104     2     5    1
   105   162   163    1
   106   109   107   ar
   107   156   157    2
   108   117   119   ar
   109   163   169   am
   110   116   118   ar
   111   182   183    1
   112   182   181    1
   113   105   107   ar
   114   183   184    2
   115   181   171   am
   116   172   171    2
   117     5     6    1
   118    78    76   ar
   119    78    79   ar
   120   171   170    1
   121   119   118   ar
   122    76    75   ar
   123   169   170    1
   124    62    60    1
   125     6     8   ar
   126     6     7   ar
   127   170   173    1
   128     8    10   ar
   129    61    60    1
   130     7     9   ar
   131    97    95   ar
   132    97    98   ar
   133    79    77   ar
   134    75    74    1
   135    75    77   ar
   136    10    11   ar
   137    60    59    1
   138    95    94   ar
   139    71    74    1
   140    71    70    1
   141    71    72    1
   142     9    11   ar
   143    89    90    1
   144    73    72    2
   145    98    96   ar
   146    59    56    1
   147   173   174    1
   148    58    57    2
   149    72    80   am
   150    90    91    1
   151    90    93    1
   152    94    96   ar
   153    94    93    1
   154   174   175   ar
   155   174   176   ar
   156    56    57    1
   157    56    55    1
   158   175   177   ar
   159   176   178   ar
   160    92    91    2
   161    57    63   am
   162   177   179   ar
   163   178   179   ar
   164   179   180    1
   165    80    81    1
   166    63    64    1
   167    82    81    1
   168    82    83    2
   169    81    84    1
   170    66    65    2
   171    64    65    1
   172    64    67    1
   173    69    67    1
   174    88    86   ar
   175    33    32    1
   176    87    86   ar
   177    86    85    1
   178    67    68    1
   179    84    85    1
   180    53    52    2
   181    15    14    2
   182    32    34    1
   183    32    31    1
   184    18    17    2
   185    54    51    1
   186    52    51    1
   187    14    13    1
   188    14    20   am
   189    50    51    1
   190    50    42   am
   191    38    37    2
   192    13    12    1
   193    13    16    1
   194    31    28    1
   195    26    24    1
   196    21    20    1
   197    21    24    1
   198    21    22    1
   199    17    16    1
   200    17    19   am
   201    27    28    1
   202    27    22   am
   203    41    44    1
   204    41    42    1
   205    41    40    1
   206    44    45    1
   207    42    43    2
   208    37    40   am
   209    37    36    1
   210    24    25    1
   211    35    36    1
   212    35    29   am
   213    28    29    1
   214    39    36    1
   215    22    23    2
   216    29    30    2
   217    45    46   ar
   218    45    47   ar
   219    46    48   ar
   220    47    49   ar
   221    48    49   ar
