@<TRIPOS>MOLECULE
tmp/1cj1J00.pdb
 118 115 0 0 0
SMALL
GASTEIGER

@<TRIPOS>ATOM
      1  N          5.1630   19.6840  201.4130 N.3    11  ARG11      -0.1245
      2  CA         3.6700   19.6590  201.4290 C.3    11  ARG11       0.1563
      3  C          3.1330   20.8970  200.7880 C.2    11  ARG11       0.2260
      4  O          2.4460   20.8300  199.7700 O.2    11  ARG11      -0.2867
      5  CB         3.1140   19.4570  202.8410 C.3    11  ARG11       0.0307
      6  CG         1.6800   19.7310  202.9680 C.3    11  ARG11       0.0489
      7  CD         1.3400   19.9780  204.4300 C.3    11  ARG11       0.2205
      8  NE         0.6910   18.8150  205.0210 N.pl3  11  ARG11      -0.0865
      9  CZ        -0.5560   18.8180  205.5000 C.cat  11  ARG11       0.5346
     10  NH1       -1.2670   19.9580  205.4420 N.pl3  11  ARG11       0.1354
     11  NH2       -1.0910   17.7290  206.0770 N.pl3  11  ARG11       0.1354
     12  N          3.5920   11.9810  197.1210 N.3    30  ARG30      -0.1245
     13  CA         4.8690   12.6020  197.3890 C.3    30  ARG30       0.1563
     14  C          5.4720   11.8340  198.5290 C.2    30  ARG30       0.2260
     15  O          4.7710   11.1170  199.2300 O.2    30  ARG30      -0.2867
     16  CB         4.6680   14.0560  197.7830 C.3    30  ARG30       0.0307
     17  CG         4.0170   14.2960  199.1280 C.3    30  ARG30       0.0489
     18  CD         3.4290   15.7080  199.2460 C.3    30  ARG30       0.2205
     19  NE         2.3980   15.8580  200.2730 N.pl3  30  ARG30      -0.0865
     20  CZ         2.6440   15.8710  201.5870 C.cat  30  ARG30       0.5346
     21  NH1        3.8800   15.7360  202.0420 N.pl3  30  ARG30       0.1354
     22  NH2        1.6790   16.1120  202.4750 N.pl3  30  ARG30       0.1354
     23  N          7.0160   11.6380  202.2310 N.3    32  SER32      -0.1202
     24  CA         6.8070   12.5820  203.3140 C.3    32  SER32       0.2020
     25  C          8.0190   13.2810  203.8100 C.2    32  SER32       0.2619
     26  O          9.0900   12.6820  203.8380 O.2    32  SER32      -0.2717
     27  CB         6.1240   11.9460  204.4910 C.3    32  SER32       0.2103
     28  OG         5.5710   12.9950  205.2470 O.3    32  SER32      -0.2182
     29  N          7.8890   14.5610  204.1590 N.am   33  GLU33      -0.1965
     30  CA         9.0420   15.2730  204.7110 C.3    33  GLU33       0.1733
     31  C          8.9490   15.1330  206.1780 C.2    33  GLU33       0.2617
     32  O          9.9290   14.8590  206.8180 O.2    33  GLU33      -0.2715
     33  CB         9.0910   16.7320  204.3400 C.3    33  GLU33       0.0429
     34  CG         9.9100   16.9670  203.1080 C.3    33  GLU33       0.1163
     35  CD         9.9490   18.4070  202.6670 C.2    33  GLU33       0.3649
     36  OE1        9.0220   19.1920  203.0190 O.co2  33  GLU33      -0.2457
     37  OE2       10.9090   18.7430  201.9400 O.co2  33  GLU33      -0.2457
     38  N          7.7480   15.2400  206.7190 N.am   34  SER34      -0.1950
     39  CA         7.5930   15.0960  208.1490 C.3    34  SER34       0.1924
     40  C          7.6650   13.6410  208.5660 C.2    34  SER34       0.2314
     41  O          8.1130   13.3280  209.6480 O.2    34  SER34      -0.2863
     42  CB         6.2770   15.7220  208.6170 C.3    34  SER34       0.2116
     43  OG         5.1480   14.9150  208.3680 O.3    34  SER34      -0.2180
     44  N          2.6620   10.3210  201.0720 N.3    40  SER40      -0.1217
     45  CA         1.5440   11.1370  201.4100 C.3    40  SER40       0.1889
     46  C          0.8490   11.3460  200.1340 C.2    40  SER40       0.2288
     47  O          1.4990   11.5120  199.0530 O.2    40  SER40      -0.2866
     48  CB         2.0100   12.4310  202.0480 C.3    40  SER40       0.2089
     49  OG         2.4690   12.0980  203.3610 O.3    40  SER40      -0.2183
     50  N         -6.3880   18.0200  200.1090 N.3    50  GLN50      -0.1231
     51  CA        -6.3710   17.1870  201.2970 C.3    50  GLN50       0.1698
     52  C         -5.1890   16.2410  201.2450 C.2    50  GLN50       0.2592
     53  O         -4.7790   15.8220  200.1280 O.2    50  GLN50      -0.2718
     54  CB        -7.6270   16.3620  201.3870 C.3    50  GLN50       0.0381
     55  CG        -8.8320   17.1090  201.0520 C.3    50  GLN50       0.0905
     56  CD       -10.0990   16.3920  201.4400 C.2    50  GLN50       0.2608
     57  OE1      -10.1330   15.1650  201.6890 O.2    50  GLN50      -0.2717
     58  NE2      -11.1690   17.1680  201.5360 N.am   50  GLN50      -0.0878
     59  N         -4.7380   15.7590  202.3990 N.am   51  HIS51      -0.1962
     60  CA        -3.6040   14.8980  202.3410 C.3    51  HIS51       0.1787
     61  C         -3.8930   13.6350  203.0430 C.2    51  HIS51       0.2620
     62  O         -4.3070   13.6880  204.2120 O.2    51  HIS51      -0.2715
     63  CB        -2.4980   15.5740  203.0930 C.3    51  HIS51       0.0785
     64  CG        -2.0680   16.8820  202.5120 C.ar   51  HIS51       0.0821
     65  ND1       -1.3450   16.9740  201.3390 N.ar   51  HIS51      -0.2267
     66  CD2       -2.2380   18.1560  202.9430 C.ar   51  HIS51       0.1154
     67  CE1       -1.1000   18.2540  201.0750 C.ar   51  HIS51       0.1986
     68  NE2       -1.6310   18.9920  202.0310 N.ar   51  HIS51      -0.2212
     69  N         -3.6170   12.4850  202.4580 N.am   52  PHE52      -0.1960
     70  CA        -3.8920   11.3050  203.2750 C.3    52  PHE52       0.1771
     71  C         -2.6230   10.6330  203.5800 C.2    52  PHE52       0.2619
     72  O         -1.8270   10.4980  202.6690 O.2    52  PHE52      -0.2715
     73  CB        -4.7780   10.3360  202.5480 C.3    52  PHE52       0.0574
     74  CG        -6.0780   10.9150  202.1900 C.ar   52  PHE52      -0.0200
     75  CD1       -6.1520   11.9260  201.2500 C.ar   52  PHE52      -0.0042
     76  CD2       -7.2320   10.4970  202.8210 C.ar   52  PHE52      -0.0042
     77  CE1       -7.3690   12.5150  200.9410 C.ar   52  PHE52      -0.0003
     78  CE2       -8.4360   11.0700  202.5190 C.ar   52  PHE52      -0.0003
     79  CZ        -8.5060   12.0810  201.5800 C.ar   52  PHE52      -0.0000
     80  N         -2.3780   10.2530  204.8190 N.am   53  LYS53      -0.1977
     81  CA        -1.1100    9.5540  205.0760 C.3    53  LYS53       0.1600
     82  C         -1.2360    8.1670  204.5150 C.2    53  LYS53       0.2287
     83  O         -2.2210    7.5580  204.8140 O.2    53  LYS53      -0.2864
     84  CB        -0.8380    9.3850  206.5710 C.3    53  LYS53       0.0344
     85  CG         0.2940    8.3860  206.8940 C.3    53  LYS53       0.0297
     86  CD         0.9190    8.6870  208.2950 C.2    53  LYS53      -0.0067
     87  CE         2.0250    9.8220  208.3520 C.2    53  LYS53       0.1012
     88  NZ         2.3410   10.5220  207.0030 N.pl3  53  LYS53      -0.1270
     89  N         -0.8680    4.4890  204.8670 N.3    55  LEU55      -0.1245
     90  CA        -0.4150    3.5800  205.8740 C.3    55  LEU55       0.1561
     91  C          0.1850    2.3540  205.2720 C.2    55  LEU55       0.2260
     92  O         -0.1230    1.9520  204.1460 O.2    55  LEU55      -0.2867
     93  CB        -1.5790    3.0830  206.6750 C.3    55  LEU55       0.0270
     94  CG        -2.4660    3.9980  207.4980 C.3    55  LEU55       0.0019
     95  CD1       -1.6180    4.7930  208.4320 C.3    55  LEU55       0.0001
     96  CD2       -3.2810    4.8730  206.5730 C.3    55  LEU55       0.0001
     97  N         -5.1630    3.0620  202.9390 N.3    64  LEU64      -0.1231
     98  CA        -5.5380    4.3770  203.4780 C.3    64  LEU64       0.1693
     99  C         -6.4500    4.2000  204.5910 C.2    64  LEU64       0.2592
    100  O         -6.3910    4.9930  205.5380 O.2    64  LEU64      -0.2718
    101  CB        -6.3240    5.2180  202.5120 C.3    64  LEU64       0.0284
    102  CG        -5.5190    5.5280  201.3110 C.3    64  LEU64       0.0019
    103  CD1       -6.1970    6.5280  200.4320 C.3    64  LEU64       0.0001
    104  CD2       -4.2350    6.0300  201.8810 C.3    64  LEU64       0.0001
    105  N         -7.3840    3.2640  204.4520 N.am   65  TRP65      -0.1976
    106  CA        -8.3530    3.0790  205.5150 C.3    65  TRP65       0.1640
    107  C         -8.4060    1.6510  205.8820 C.2    65  TRP65       0.2290
    108  O         -7.9930    1.2480  206.9810 O.2    65  TRP65      -0.2864
    109  CB        -9.7100    3.4730  205.0350 C.3    65  TRP65       0.0576
    110  CG        -9.7810    4.8680  204.5990 C.ar   65  TRP65       0.0006
    111  CD1       -9.7570    5.3450  203.3000 C.ar   65  TRP65       0.0946
    112  CD2       -9.9620    5.9970  205.4240 C.ar   65  TRP65       0.0152
    113  NE1       -9.9320    6.7340  203.2820 N.ar   65  TRP65      -0.2442
    114  CE2      -10.0610    7.1440  204.5770 C.ar   65  TRP65       0.0810
    115  CE3      -10.0560    6.1620  206.7880 C.ar   65  TRP65       0.0012
    116  CZ2      -10.2500    8.4090  205.0700 C.ar   65  TRP65       0.0191
    117  CZ3      -10.2430    7.4200  207.2880 C.ar   65  TRP65       0.0001
    118  CH2      -10.3420    8.5410  206.4360 C.ar   65  TRP65       0.0015
@<TRIPOS>BOND
     1    12    13    1
     2    13    16    1
     3    13    14    1
     4    16    17    1
     5    14    15    2
     6    47    46    2
     7    17    18    1
     8    18    19    1
     9     4     3    2
    10    50    51    1
    11    53    52    2
    12    46    45    1
    13    19    20    2
    14   103   102    1
    15     3     2    1
    16    77    75   ar
    17    77    79   ar
    18    55    54    1
    19    55    56    1
    20    44    45    1
    21    67    65   ar
    22    67    68   ar
    23    52    51    1
    24    52    59   am
    25    75    74   ar
    26    51    54    1
    27   102   104    1
    28   102   101    1
    29    65    64   ar
    30    45    48    1
    31     1     2    1
    32     2     5    1
    33    56    58   am
    34    56    57    2
    35    79    78   ar
    36    20    21    1
    37    20    22    1
    38    37    35   ar
    39    68    66   ar
    40    48    49    1
    41    74    73    1
    42    74    76   ar
    43    23    24    1
    44    60    59    1
    45    60    61    1
    46    60    63    1
    47    69    61   am
    48    69    70    1
    49    64    66   ar
    50    64    63    1
    51   101    98    1
    52    78    76   ar
    53    73    70    1
    54    35    36   ar
    55    35    34    1
    56    72    71    2
    57     5     6    1
    58    97    98    1
    59     6     7    1
    60    61    62    2
    61    34    33    1
    62    70    71    1
    63   113   111   ar
    64   113   114   ar
    65   111   110   ar
    66    24    25    1
    67    24    27    1
    68    98    99    1
    69    71    80   am
    70    25    26    2
    71    25    29   am
    72    92    91    2
    73    29    30    1
    74    33    30    1
    75     7     8    1
    76   105    99   am
    77   105   106    1
    78    27    28    1
    79    82    83    2
    80    82    81    1
    81   114   116   ar
    82   114   112   ar
    83    99   100    2
    84   110   109    1
    85   110   112   ar
    86    30    31    1
    87    80    81    1
    88    89    90    1
    89     8     9    2
    90   109   106    1
    91   116   118   ar
    92    81    84    1
    93    91    90    1
    94   112   115   ar
    95    10     9    1
    96     9    11    1
    97   106   107    1
    98    90    93    1
    99   107   108    2
   100    31    38   am
   101    31    32    2
   102   118   117   ar
   103    84    85    1
   104    96    94    1
   105    93    94    1
   106    38    39    1
   107   115   117   ar
   108    85    86    1
   109    88    87    1
   110    94    95    1
   111    39    40    1
   112    39    42    1
   113    86    87    2
   114    43    42    1
   115    40    41    2
