@<TRIPOS>MOLECULE
tmp/1cjaA00.pdb
 165 153 0 0 0
SMALL
GASTEIGER

@<TRIPOS>ATOM
      1  N          0.4910   72.1580   15.9600 N.3    36  LEU36      -0.1245
      2  CA         1.7390   72.6770   15.4140 C.3    36  LEU36       0.1561
      3  C          2.3240   71.7700   14.3520 C.2    36  LEU36       0.2260
      4  O          3.1290   72.2050   13.5390 O.2    36  LEU36      -0.2867
      5  CB         2.7490   72.8930   16.5270 C.3    36  LEU36       0.0270
      6  CG         2.2250   73.9270   17.5160 C.3    36  LEU36       0.0019
      7  CD1        3.1800   74.0970   18.6790 C.3    36  LEU36       0.0001
      8  CD2        2.0210   75.2360   16.7930 C.3    36  LEU36       0.0001
      9  N          0.5810   78.1570   25.6890 N.3    62  SER62      -0.1217
     10  CA         1.5680   77.0900   25.7370 C.3    62  SER62       0.1889
     11  C          1.7910   76.7610   27.1960 C.2    62  SER62       0.2288
     12  O          2.2510   77.6060   27.9580 O.2    62  SER62      -0.2866
     13  CB         2.8830   77.5570   25.1410 C.3    62  SER62       0.2089
     14  OG         3.8660   76.5560   25.2760 O.3    62  SER62      -0.2183
     15  N          4.0440   75.3650   28.4890 N.3    64  LYS64      -0.1231
     16  CA         5.4660   75.1940   28.7250 C.3    64  LYS64       0.1693
     17  C          6.2280   76.5140   28.8760 C.2    64  LYS64       0.2593
     18  O          5.7330   77.6030   28.5280 O.2    64  LYS64      -0.2718
     19  CB         6.0870   74.3500   27.5920 C.3    64  LYS64       0.0285
     20  CG         5.2900   73.0800   27.2060 C.3    64  LYS64       0.0035
     21  CD         4.1190   73.3950   26.2460 C.3    64  LYS64       0.0206
     22  CE         2.9220   72.4300   26.3830 C.3    64  LYS64       0.1093
     23  NZ         3.1850   71.0240   25.9380 N.3    64  LYS64      -0.1314
     24  N          7.4350   76.3880   29.4250 N.am   65  GLY65      -0.1942
     25  CA         8.3230   77.5200   29.6220 C.3    65  GLY65       0.2014
     26  C          7.8050   78.6150   30.5270 C.2    65  GLY65       0.2639
     27  O          7.2630   78.3390   31.5950 O.2    65  GLY65      -0.2714
     28  N          7.9700   79.8580   30.0800 N.am   66  THR66      -0.1950
     29  CA         7.5430   81.0390   30.8300 C.3    66  THR66       0.1897
     30  C          6.1710   80.8760   31.4690 C.2    66  THR66       0.2313
     31  O          6.0440   80.9140   32.6970 O.2    66  THR66      -0.2863
     32  CB         7.5360   82.3350   29.9270 C.3    66  THR66       0.1794
     33  OG1        6.9250   83.4250   30.6360 O.3    66  THR66      -0.2208
     34  CG2        6.7740   82.1100   28.6160 C.3    66  THR66       0.0378
     35  N          3.1790   82.3200   26.8940 N.3    69  LEU69      -0.1245
     36  CA         3.3550   82.1830   25.4670 C.3    69  LEU69       0.1561
     37  C          2.0470   81.6940   24.8980 C.2    69  LEU69       0.2260
     38  O          1.4880   80.7270   25.3950 O.2    69  LEU69      -0.2867
     39  CB         4.4850   81.2030   25.1580 C.3    69  LEU69       0.0270
     40  CG         5.1310   81.4100   23.7840 C.3    69  LEU69       0.0019
     41  CD1        6.6210   81.2220   23.8380 C.3    69  LEU69       0.0001
     42  CD2        4.5540   80.4950   22.7630 C.3    69  LEU69       0.0001
     43  N         -0.3100   80.8430   21.2610 N.3    71  PHE71      -0.1241
     44  CA        -0.3110   80.5930   19.8360 C.3    71  PHE71       0.1605
     45  C         -1.6130   81.1260   19.3330 C.2    71  PHE71       0.2264
     46  O         -2.6610   80.7820   19.8540 O.2    71  PHE71      -0.2867
     47  CB        -0.2360   79.0990   19.5490 C.3    71  PHE71       0.0534
     48  CG         1.0420   78.4890   19.9880 C.ar   71  PHE71      -0.0203
     49  CD1        2.2140   78.7530   19.2990 C.ar   71  PHE71      -0.0042
     50  CD2        1.1010   77.7130   21.1350 C.ar   71  PHE71      -0.0042
     51  CE1        3.4220   78.2640   19.7460 C.ar   71  PHE71      -0.0003
     52  CE2        2.3200   77.2100   21.5930 C.ar   71  PHE71      -0.0003
     53  CZ         3.4720   77.4890   20.9020 C.ar   71  PHE71      -0.0000
     54  N          2.7440   84.1720   17.3330 N.3    80  ILE80      -0.1245
     55  CA         2.8210   84.0560   18.7700 C.3    80  ILE80       0.1561
     56  C          2.7460   85.3670   19.4790 C.2    80  ILE80       0.2260
     57  O          3.3990   86.3360   19.0890 O.2    80  ILE80      -0.2867
     58  CB         4.1510   83.3930   19.1480 C.3    80  ILE80       0.0252
     59  CG1        4.1350   81.9340   18.7090 C.3    80  ILE80       0.0019
     60  CG2        4.4380   83.5360   20.6260 C.3    80  ILE80       0.0019
     61  CD1        5.4320   81.2240   18.9640 C.3    80  ILE80       0.0001
     62  N          3.4140   86.8790   23.1760 N.3    82  LYS82      -0.1245
     63  CA         4.0810   86.4330   24.3610 C.3    82  LYS82       0.1561
     64  C          4.4530   87.5150   25.3440 C.2    82  LYS82       0.2260
     65  O          4.7940   88.6220   24.9580 O.2    82  LYS82      -0.2867
     66  CB         5.3000   85.6750   23.8860 C.3    82  LYS82       0.0271
     67  CG         6.4560   85.6370   24.8180 C.3    82  LYS82       0.0035
     68  CD         7.6490   84.9810   24.1150 C.3    82  LYS82       0.0206
     69  CE         8.9050   84.9960   24.9700 C.3    82  LYS82       0.1093
     70  NZ         9.9780   84.2400   24.2850 N.3    82  LYS82      -0.1314
     71  N         13.8460   84.0700   15.5640 N.3   105  PRO105     -0.2116
     72  CA        12.4800   84.2540   15.0540 C.3   105  PRO105      0.1372
     73  C         12.1640   85.7320   14.9400 C.2   105  PRO105      0.2244
     74  O         12.5710   86.5130   15.7970 O.2   105  PRO105     -0.2868
     75  CB        11.6170   83.6370   16.1540 C.3   105  PRO105      0.0268
     76  CG        12.5650   82.7970   16.9590 C.3   105  PRO105      0.0207
     77  CD        13.8170   83.6100   16.9560 C.3   105  PRO105      0.0892
     78  N          5.5200   87.2100   17.8200 N.3   146  MET146     -0.1230
     79  CA         6.6110   86.4150   17.3400 C.3   146  MET146      0.1702
     80  C          6.2600   85.4880   16.1940 C.2   146  MET146      0.2592
     81  O          5.1200   85.0450   16.0440 O.2   146  MET146     -0.2718
     82  CB         7.1760   85.6210   18.5040 C.3   146  MET146      0.0401
     83  CG         8.6770   85.4690   18.4690 C.3   146  MET146      0.0596
     84  SD         9.2220   84.6060   19.9320 S.3   146  MET146     -0.1393
     85  CE         9.1550   83.0210   19.3140 C.3   146  MET146      0.0692
     86  N          7.2620   85.1960   15.3800 N.am  147  GLU147     -0.1966
     87  CA         7.1020   84.3200   14.2380 C.3   147  GLU147      0.1733
     88  C          7.0760   82.8580   14.6570 C.2   147  GLU147      0.2616
     89  O          7.8760   82.4190   15.4790 O.2   147  GLU147     -0.2715
     90  CB         8.2380   84.6050   13.2630 C.3   147  GLU147      0.0429
     91  CG         8.8540   83.4300   12.5570 C.3   147  GLU147      0.1163
     92  CD         9.8170   83.9020   11.4920 C.2   147  GLU147      0.3649
     93  OE1        9.3160   84.4280   10.4790 O.co2 147  GLU147     -0.2457
     94  OE2       11.0530   83.7990   11.6770 O.co2 147  GLU147     -0.2457
     95  N          6.1170   82.1070   14.1480 N.am  148  LEU148     -0.1963
     96  CA         6.0740   80.6990   14.4910 C.3   148  LEU148      0.1728
     97  C          7.2710   80.0460   13.8190 C.2   148  LEU148      0.2616
     98  O          7.5570   80.3110   12.6480 O.2   148  LEU148     -0.2715
     99  CB         4.8170   80.0380   13.9480 C.3   148  LEU148      0.0311
    100  CG         4.6300   78.6070   14.4250 C.3   148  LEU148      0.0022
    101  CD1        4.2870   78.6400   15.8930 C.3   148  LEU148      0.0001
    102  CD2        3.5320   77.9330   13.6580 C.3   148  LEU148      0.0001
    103  N          7.9900   79.2220   14.5610 N.am  149  VAL149     -0.1977
    104  CA         9.1220   78.5370   13.9900 C.3   149  VAL149      0.1596
    105  C          8.7780   77.0630   14.0120 C.2   149  VAL149      0.2287
    106  O          8.5170   76.5110   15.0750 O.2   149  VAL149     -0.2864
    107  CB        10.3610   78.7830   14.8150 C.3   149  VAL149      0.0276
    108  CG1       11.4340   77.7900   14.4490 C.3   149  VAL149      0.0022
    109  CG2       10.8540   80.1720   14.5650 C.3   149  VAL149      0.0022
    110  N         12.8420   71.7250   19.9070 N.3   153  THR153     -0.1218
    111  CA        13.9750   72.1690   20.7130 C.3   153  THR153      0.1862
    112  C         14.9910   71.0500   20.7050 C.2   153  THR153      0.2287
    113  O         14.6480   69.8780   20.4860 O.2   153  THR153     -0.2866
    114  CB        13.5950   72.4390   22.1740 C.3   153  THR153      0.1770
    115  OG1       12.8400   71.3370   22.6900 O.3   153  THR153     -0.2211
    116  CG2       12.7800   73.6820   22.2990 C.3   153  THR153      0.0375
    117  N         14.3340   67.8100   22.8450 N.3   156  LYS156     -0.1245
    118  CA        13.4320   66.8480   22.2520 C.3   156  LYS156      0.1561
    119  C         13.9940   65.9490   21.1630 C.2   156  LYS156      0.2260
    120  O         13.2420   65.1950   20.5460 O.2   156  LYS156     -0.2867
    121  CB        12.1570   67.5410   21.7990 C.3   156  LYS156      0.0271
    122  CG        11.4080   68.1840   22.9460 C.3   156  LYS156      0.0035
    123  CD        10.1750   68.9050   22.4420 C.3   156  LYS156      0.0206
    124  CE         9.5240   69.7500   23.5380 C.3   156  LYS156      0.1093
    125  NZ         8.3220   70.4990   23.0410 N.3   156  LYS156     -0.1314
    126  N         16.5420   74.1620   26.1820 N.3   201  ASP201     -0.1225
    127  CA        15.1700   74.5220   25.8210 C.3   201  ASP201      0.1805
    128  C         15.2460   75.7570   24.9610 C.2   201  ASP201      0.2597
    129  O         14.4440   75.9510   24.0590 O.2   201  ASP201     -0.2718
    130  CB        14.3310   74.9220   27.0370 C.3   201  ASP201      0.1424
    131  CG        14.1780   73.8200   28.0580 C.2   201  ASP201      0.3668
    132  OD1       15.0310   72.9030   28.1180 O.co2 201  ASP201     -0.2456
    133  OD2       13.2020   73.9090   28.8380 O.co2 201  ASP201     -0.2456
    134  N         16.2030   76.6120   25.2730 N.am  202  ASN202     -0.1974
    135  CA        16.3420   77.8530   24.5650 C.3   202  ASN202      0.1688
    136  C         16.8750   77.7700   23.1690 C.2   202  ASN202      0.2292
    137  O         17.3660   78.7700   22.6380 O.2   202  ASN202     -0.2864
    138  CB        17.1850   78.8080   25.3710 C.3   202  ASN202      0.1181
    139  CG        16.4550   79.3390   26.5660 C.2   202  ASN202      0.2629
    140  OD1       17.0640   79.9650   27.4430 O.2   202  ASN202     -0.2716
    141  ND2       15.1310   79.1110   26.6190 N.am  202  ASN202     -0.0877
    142  N         16.0830   75.9530   19.2170 N.3   204  MET204     -0.1245
    143  CA        15.2960   75.1760   18.2720 C.3   204  MET204      0.1570
    144  C         16.0200   74.8590   17.0040 C.2   204  MET204      0.2261
    145  O         16.9300   75.5670   16.5860 O.2   204  MET204     -0.2867
    146  CB        14.0340   75.9230   17.8770 C.3   204  MET204      0.0387
    147  CG        13.0520   76.0670   18.9950 C.3   204  MET204      0.0595
    148  SD        11.4680   76.6140   18.3970 S.3   204  MET204     -0.1393
    149  CE        10.8810   75.0780   17.5410 C.3   204  MET204      0.0692
    150  N         16.3850   80.9380   20.9950 N.3   215  ILE215     -0.1231
    151  CA        15.1700   81.4680   21.5770 C.3   215  ILE215      0.1692
    152  C         15.4260   81.9860   22.9780 C.2   215  ILE215      0.2592
    153  O         16.4190   81.6280   23.5960 O.2   215  ILE215     -0.2718
    154  CB        14.1430   80.3520   21.5630 C.3   215  ILE215      0.0266
    155  CG1       13.2720   80.4840   20.3500 C.3   215  ILE215      0.0019
    156  CG2       13.3270   80.2920   22.8040 C.3   215  ILE215      0.0020
    157  CD1       12.4620   79.2560   20.1860 C.3   215  ILE215      0.0001
    158  N         14.5540   82.8670   23.4550 N.am  216  ASP216     -0.1974
    159  CA        14.6950   83.4390   24.7860 C.3   216  ASP216      0.1709
    160  C         16.0850   83.9700   24.9960 C.2   216  ASP216      0.2293
    161  O         16.6450   83.8130   26.0750 O.2   216  ASP216     -0.2864
    162  CB        14.4160   82.4030   25.8630 C.3   216  ASP216      0.1436
    163  CG        12.9620   82.0360   25.9580 C.2   216  ASP216      0.3671
    164  OD1       12.2140   82.2380   24.9790 O.co2 216  ASP216     -0.2456
    165  OD2       12.5610   81.5280   27.0210 O.co2 216  ASP216     -0.2456
@<TRIPOS>BOND
     1    93    92   ar
     2    92    94   ar
     3    92    91    1
     4    91    90    1
     5    98    97    2
     6    90    87    1
     7     4     3    2
     8   102   100    1
     9    97    96    1
    10    97   103   am
    11    99   100    1
    12    99    96    1
    13   104   105    1
    14   104   103    1
    15   104   107    1
    16   105   106    2
    17    95    96    1
    18    95    88   am
    19    87    88    1
    20    87    86    1
    21     3     2    1
    22   100   101    1
    23   108   107    1
    24   109   107    1
    25    88    89    2
    26    73    72    1
    27    73    74    2
    28    72    71    1
    29    72    75    1
    30    86    80   am
    31     2     1    1
    32     2     5    1
    33    71    77    1
    34    81    80    2
    35    75    76    1
    36    80    79    1
    37     5     6    1
    38   145   144    2
    39     8     6    1
    40    77    76    1
    41   144   143    1
    42    54    55    1
    43    79    78    1
    44    79    82    1
    45     6     7    1
    46   149   148    1
    47   146   143    1
    48   146   147    1
    49   143   142    1
    50   148   147    1
    51    83    82    1
    52    83    84    1
    53    59    61    1
    54    59    58    1
    55    55    58    1
    56    55    56    1
    57    57    56    2
    58    58    60    1
    59    49    51   ar
    60    49    48   ar
    61    85    84    1
    62    45    44    1
    63    45    46    2
    64    47    44    1
    65    47    48    1
    66    51    53   ar
    67    44    43    1
    68   110   111    1
    69    48    50   ar
    70   157   155    1
    71   155   154    1
    72   113   112    2
    73   120   119    2
    74   112   111    1
    75   111   114    1
    76    53    52   ar
    77   150   151    1
    78    50    52   ar
    79   119   118    1
    80   154   151    1
    81   154   156    1
    82   151   152    1
    83   121   118    1
    84   121   122    1
    85   114   116    1
    86   114   115    1
    87   118   117    1
    88   123   122    1
    89   123   124    1
    90   137   136    2
    91    42    40    1
    92   152   158   am
    93   152   153    2
    94   125   124    1
    95   136   135    1
    96    62    63    1
    97   158   159    1
    98    40    41    1
    99    40    39    1
   100    66    63    1
   101    66    67    1
   102   129   128    2
   103    68    67    1
   104    68    69    1
   105    70    69    1
   106    63    64    1
   107   135   134    1
   108   135   138    1
   109   159   160    1
   110   159   162    1
   111    37    38    2
   112    37    36    1
   113    65    64    2
   114   128   134   am
   115   128   127    1
   116   164   163   ar
   117   160   161    2
   118    13    14    1
   119    13    10    1
   120    39    36    1
   121   138   139    1
   122    36    35    1
   123     9    10    1
   124    10    11    1
   125   127   126    1
   126   127   130    1
   127   162   163    1
   128    23    22    1
   129   163   165   ar
   130    21    22    1
   131    21    20    1
   132   139   141   am
   133   139   140    2
   134   130   131    1
   135    11    12    2
   136    20    19    1
   137    19    16    1
   138   131   132   ar
   139   131   133   ar
   140    15    16    1
   141    18    17    2
   142    34    32    1
   143    16    17    1
   144    17    24   am
   145    24    25    1
   146    25    26    1
   147    32    33    1
   148    32    29    1
   149    28    26   am
   150    28    29    1
   151    26    27    2
   152    29    30    1
   153    30    31    2
