@<TRIPOS>MOLECULE
tmp/1cjbA00.pdb
 162 155 0 0 0
SMALL
GASTEIGER

@<TRIPOS>ATOM
      1  N         53.7420   39.5430   70.6050 N.3    74  LEU74      -0.1245
      2  CA        54.4540   38.2740   70.7330 C.3    74  LEU74       0.1561
      3  C         54.3050   37.7410   72.1640 C.2    74  LEU74       0.2260
      4  O         55.0870   38.0830   73.0520 O.2    74  LEU74      -0.2867
      5  CB        55.9340   38.4700   70.3870 C.3    74  LEU74       0.0270
      6  CG        56.3890   38.0370   68.9900 C.3    74  LEU74       0.0019
      7  CD1       55.4570   38.5980   67.9460 C.3    74  LEU74       0.0001
      8  CD2       57.8040   38.5150   68.7320 C.3    74  LEU74       0.0001
      9  N         55.7530   37.0060   76.9400 N.3    77  GLY77      -0.1225
     10  CA        56.5730   38.0390   77.5550 C.3    77  GLY77       0.1811
     11  C         56.2830   39.5000   77.2540 C.2    77  GLY77       0.2280
     12  O         56.5700   40.3690   78.0690 O.2    77  GLY77      -0.2866
     13  N         54.8570   32.7990   70.7520 N.3   112  VAL112     -0.1245
     14  CA        56.1260   32.2680   70.2740 C.3   112  VAL112      0.1561
     15  C         56.9390   31.7610   71.4730 C.2   112  VAL112      0.2260
     16  O         57.1420   32.4920   72.4410 O.2   112  VAL112     -0.2867
     17  CB        56.9160   33.3600   69.5130 C.3   112  VAL112      0.0252
     18  CG1       58.1760   32.7750   68.9260 C.3   112  VAL112      0.0019
     19  CG2       56.0520   33.9540   68.4070 C.3   112  VAL112      0.0019
     20  N         60.5320   29.5670   72.8550 N.3   114  SER114     -0.1202
     21  CA        61.8760   29.0910   72.5240 C.3   114  SER114      0.2020
     22  C         62.7960   28.9360   73.7300 C.2   114  SER114      0.2618
     23  O         63.8190   28.2610   73.6380 O.2   114  SER114     -0.2717
     24  CB        62.5470   30.0340   71.5130 C.3   114  SER114      0.2103
     25  OG        62.8990   31.2750   72.1030 O.3   114  SER114     -0.2182
     26  N         62.4330   29.5450   74.8590 N.am  115  TYR115     -0.1975
     27  CA        63.2740   29.4810   76.0560 C.3   115  TYR115      0.1639
     28  C         62.9470   28.4150   77.0870 C.2   115  TYR115      0.2290
     29  O         61.7950   28.0410   77.2910 O.2   115  TYR115     -0.2864
     30  CB        63.2960   30.8430   76.7650 C.3   115  TYR115      0.0560
     31  CG        64.4030   31.7490   76.2820 C.ar  115  TYR115     -0.0198
     32  CD1       64.5060   32.0900   74.9310 C.ar  115  TYR115     -0.0009
     33  CD2       65.3700   32.2380   77.1630 C.ar  115  TYR115     -0.0009
     34  CE1       65.5410   32.8870   74.4650 C.ar  115  TYR115      0.0417
     35  CE2       66.4190   33.0430   76.7040 C.ar  115  TYR115      0.0417
     36  CZ        66.4970   33.3600   75.3520 C.ar  115  TYR115      0.1957
     37  OH        67.5300   34.1370   74.8780 O.3   115  TYR115     -0.2866
     38  N         68.0770   30.0300   75.2640 N.3   120  SER120     -0.1217
     39  CA        67.2550   29.7350   74.1040 C.3   120  SER120      0.1889
     40  C         67.5170   28.2820   73.7500 C.2   120  SER120      0.2288
     41  O         68.6600   27.8470   73.7440 O.2   120  SER120     -0.2866
     42  CB        67.6570   30.6150   72.9230 C.3   120  SER120      0.2089
     43  OG        67.1280   30.0940   71.7150 O.3   120  SER120     -0.2183
     44  N         57.4820   43.3080   70.7930 N.3   143  GLU143     -0.1231
     45  CA        58.2120   42.2760   71.5140 C.3   143  GLU143      0.1699
     46  C         58.8260   42.8060   72.8150 C.2   143  GLU143      0.2592
     47  O         59.0960   43.9980   72.9560 O.2   143  GLU143     -0.2718
     48  CB        59.3010   41.7040   70.5860 C.3   143  GLU143      0.0402
     49  CG        60.3120   40.7510   71.2280 C.3   143  GLU143      0.1161
     50  CD        59.7180   39.3900   71.5770 C.2   143  GLU143      0.3649
     51  OE1       58.6240   39.3480   72.1870 O.co2 143  GLU143     -0.2457
     52  OE2       60.3470   38.3590   71.2450 O.co2 143  GLU143     -0.2457
     53  N         59.0530   41.9080   73.7650 N.am  144  ASP144     -0.1960
     54  CA        59.6160   42.3050   75.0400 C.3   144  ASP144      0.1840
     55  C         61.1200   42.5370   75.0220 C.2   144  ASP144      0.2622
     56  O         61.5920   43.6150   75.3980 O.2   144  ASP144     -0.2715
     57  CB        59.2640   41.2770   76.1270 C.3   144  ASP144      0.1450
     58  CG        59.6440   39.8520   75.7490 C.2   144  ASP144      0.3671
     59  OD1       60.1040   39.6170   74.6080 O.co2 144  ASP144     -0.2456
     60  OD2       59.4760   38.9610   76.6120 O.co2 144  ASP144     -0.2456
     61  N         61.8760   41.5450   74.5710 N.am  145  ILE145     -0.1963
     62  CA        63.3230   41.6830   74.5750 C.3   145  ILE145      0.1727
     63  C         64.0360   40.9330   73.4560 C.2   145  ILE145      0.2616
     64  O         63.6150   39.8560   73.0280 O.2   145  ILE145     -0.2715
     65  CB        63.8840   41.2170   75.9590 C.3   145  ILE145      0.0290
     66  CG1       65.4090   41.3400   76.0040 C.3   145  ILE145      0.0022
     67  CG2       63.4520   39.7870   76.2370 C.3   145  ILE145      0.0023
     68  CD1       65.9980   41.1910   77.4070 C.3   145  ILE145      0.0001
     69  N         65.1080   41.5390   72.9630 N.am  146  ILE146     -0.1963
     70  CA        65.9310   40.9250   71.9360 C.3   146  ILE146      0.1727
     71  C         67.1580   40.4530   72.7020 C.2   146  ILE146      0.2616
     72  O         67.8390   41.2560   73.3500 O.2   146  ILE146     -0.2715
     73  CB        66.3770   41.9360   70.8490 C.3   146  ILE146      0.0290
     74  CG1       65.1920   42.2940   69.9490 C.3   146  ILE146      0.0022
     75  CG2       67.4930   41.3310   69.9980 C.3   146  ILE146      0.0023
     76  CD1       65.4280   43.4950   69.0710 C.3   146  ILE146      0.0001
     77  N         67.4110   39.1500   72.6540 N.am  147  ASP147     -0.1957
     78  CA        68.5510   38.5520   73.3350 C.3   147  ASP147      0.1840
     79  C         69.5450   38.0570   72.2740 C.2   147  ASP147      0.2623
     80  O         70.4760   38.7790   71.8960 O.2   147  ASP147     -0.2715
     81  CB        68.0730   37.3960   74.2200 C.3   147  ASP147      0.1450
     82  CG        69.0160   37.1150   75.3700 C.2   147  ASP147      0.3671
     83  OD1       70.2340   37.0280   75.1240 O.co2 147  ASP147     -0.2456
     84  OD2       68.5450   36.9790   76.5180 O.co2 147  ASP147     -0.2456
     85  N         69.3480   36.8330   71.7910 N.am  148  THR148     -0.1937
     86  CA        70.2230   36.2810   70.7590 C.3   148  THR148      0.2028
     87  C         69.7730   36.8100   69.4020 C.2   148  THR148      0.2643
     88  O         70.5630   36.9140   68.4700 O.2   148  THR148     -0.2714
     89  CB        70.1660   34.7330   70.7210 C.3   148  THR148      0.1808
     90  OG1       68.8420   34.3050   70.3720 O.3   148  THR148     -0.2208
     91  CG2       70.5460   34.1460   72.0780 C.3   148  THR148      0.0379
     92  N         68.4910   37.1480   69.3090 N.am  149  GLY149     -0.1939
     93  CA        67.9370   37.6510   68.0660 C.3   149  GLY149      0.2014
     94  C         67.3360   36.5320   67.2380 C.2   149  GLY149      0.2639
     95  O         66.8870   36.7560   66.1180 O.2   149  GLY149     -0.2714
     96  N         67.3220   35.3260   67.7940 N.am  150  LYS150     -0.1963
     97  CA        66.7880   34.1520   67.1050 C.3   150  LYS150      0.1728
     98  C         65.2750   34.2000   66.8970 C.2   150  LYS150      0.2617
     99  O         64.7790   33.8780   65.8150 O.2   150  LYS150     -0.2715
    100  CB        67.1420   32.8810   67.8820 C.3   150  LYS150      0.0311
    101  CG        68.4810   32.2720   67.5150 C.3   150  LYS150      0.0038
    102  CD        68.9870   31.3980   68.6360 C.3   150  LYS150      0.0206
    103  CE        70.3690   30.8500   68.3310 C.3   150  LYS150      0.1093
    104  NZ        70.4940   29.4360   68.7980 N.3   150  LYS150     -0.1314
    105  N         64.5470   34.5860   67.9420 N.am  151  THR151     -0.1937
    106  CA        63.0930   34.6670   67.8760 C.3   151  THR151      0.2028
    107  C         62.6230   35.5910   66.7620 C.2   151  THR151      0.2642
    108  O         61.8130   35.1990   65.9170 O.2   151  THR151     -0.2714
    109  CB        62.4890   35.1770   69.2140 C.3   151  THR151      0.1808
    110  OG1       62.7010   34.2010   70.2420 O.3   151  THR151     -0.2208
    111  CG2       60.9820   35.4200   69.0720 C.3   151  THR151      0.0379
    112  N         63.1350   36.8170   66.7570 N.am  152  LEU152     -0.1977
    113  CA        62.7240   37.7960   65.7600 C.3   152  LEU152      0.1596
    114  C         63.2430   37.5580   64.3490 C.2   152  LEU152      0.2287
    115  O         62.5190   37.7980   63.3780 O.2   152  LEU152     -0.2864
    116  CB        63.0920   39.2040   66.2280 C.3   152  LEU152      0.0297
    117  CG        62.0610   39.7740   67.2100 C.3   152  LEU152      0.0022
    118  CD1       62.5420   41.1120   67.7370 C.3   152  LEU152      0.0001
    119  CD2       60.7000   39.9070   66.5220 C.3   152  LEU152      0.0001
    120  N         69.3050   43.3150   74.9720 N.3   175  LYS175     -0.1245
    121  CA        70.4030   42.9240   75.8530 C.3   175  LYS175      0.1561
    122  C         71.7660   42.9780   75.1740 C.2   175  LYS175      0.2260
    123  O         71.9360   42.4980   74.0580 O.2   175  LYS175     -0.2867
    124  CB        70.1520   41.5070   76.3910 C.3   175  LYS175      0.0271
    125  CG        71.1300   41.0310   77.4530 C.3   175  LYS175      0.0035
    126  CD        70.8860   39.5600   77.8070 C.3   175  LYS175      0.0206
    127  CE        69.5440   39.3550   78.5220 C.3   175  LYS175      0.1093
    128  NZ        69.2670   37.9300   78.8910 N.3   175  LYS175     -0.1314
    129  N         70.0260   37.8070   82.9110 N.3   196  PHE196     -0.1227
    130  CA        68.6740   37.3300   82.6350 C.3   196  PHE196      0.1736
    131  C         67.7250   38.1340   83.5060 C.2   196  PHE196      0.2595
    132  O         67.8630   38.1520   84.7310 O.2   196  PHE196     -0.2718
    133  CB        68.5270   35.8360   82.9490 C.3   196  PHE196      0.0547
    134  CG        67.3010   35.2110   82.3330 C.ar  196  PHE196     -0.0202
    135  CD1       67.3310   34.7290   81.0280 C.ar  196  PHE196     -0.0042
    136  CD2       66.1060   35.1380   83.0440 C.ar  196  PHE196     -0.0042
    137  CE1       66.1920   34.1880   80.4390 C.ar  196  PHE196     -0.0003
    138  CE2       64.9590   34.5980   82.4620 C.ar  196  PHE196     -0.0003
    139  CZ        65.0030   34.1240   81.1600 C.ar  196  PHE196     -0.0000
    140  N         66.7660   38.8030   82.8730 N.am  197  VAL197     -0.1980
    141  CA        65.8070   39.6360   83.5980 C.3   197  VAL197      0.1595
    142  C         64.3970   39.0380   83.7050 C.2   197  VAL197      0.2287
    143  O         63.9810   38.2360   82.8710 O.2   197  VAL197     -0.2864
    144  CB        65.6960   41.0470   82.9440 C.3   197  VAL197      0.0276
    145  CG1       66.9960   41.8270   83.1460 C.3   197  VAL197      0.0022
    146  CG2       65.3760   40.9160   81.4620 C.3   197  VAL197      0.0022
    147  N         58.0450   39.4760   81.7960 N.3   202  LEU202     -0.1231
    148  CA        59.1910   38.6440   81.4490 C.3   202  LEU202      0.1693
    149  C         59.2990   37.6060   82.5480 C.2   202  LEU202      0.2592
    150  O         59.2290   37.9340   83.7330 O.2   202  LEU202     -0.2718
    151  CB        60.4630   39.4900   81.3670 C.3   202  LEU202      0.0284
    152  CG        60.6130   40.2270   80.0300 C.3   202  LEU202      0.0019
    153  CD1       59.7010   41.4450   80.0250 C.3   202  LEU202      0.0001
    154  CD2       62.0650   40.6280   79.8050 C.3   202  LEU202      0.0001
    155  N         59.4710   36.3520   82.1570 N.am  203  ASP203     -0.1974
    156  CA        59.5260   35.2680   83.1220 C.3   203  ASP203      0.1709
    157  C         60.7980   34.4590   83.1170 C.2   203  ASP203      0.2293
    158  O         61.6890   34.6460   82.2840 O.2   203  ASP203     -0.2864
    159  CB        58.4150   34.2800   82.8260 C.3   203  ASP203      0.1436
    160  CG        58.7500   33.4000   81.6310 C.2   203  ASP203      0.3671
    161  OD1       59.0780   33.9660   80.5810 O.co2 203  ASP203     -0.2456
    162  OD2       58.7020   32.1550   81.7280 O.co2 203  ASP203     -0.2456
@<TRIPOS>BOND
     1   115   114    2
     2   114   113    1
     3   113   116    1
     4   113   112    1
     5    99    98    2
     6   108   107    2
     7    95    94    2
     8   116   117    1
     9   119   117    1
    10   112   107   am
    11   107   106    1
    12    98    97    1
    13    98   105   am
    14    97    96    1
    15    97   100    1
    16   117   118    1
    17    94    96   am
    18    94    93    1
    19   101   100    1
    20   101   102    1
    21   106   105    1
    22   106   109    1
    23     7     6    1
    24    93    92    1
    25   103   102    1
    26   103   104    1
    27    19    17    1
    28    88    87    2
    29     8     6    1
    30    18    17    1
    31     6     5    1
    32    76    74    1
    33   111   109    1
    34   109   110    1
    35    92    87   am
    36    87    86    1
    37    17    14    1
    38    74    73    1
    39    75    73    1
    40    14    13    1
    41    14    15    1
    42    90    89    1
    43     5     2    1
    44    48    49    1
    45    48    45    1
    46     1     2    1
    47    89    86    1
    48    89    91    1
    49     2     3    1
    50    86    85    1
    51    44    45    1
    52    73    70    1
    53    49    50    1
    54    52    50   ar
    55    15    16    2
    56    24    25    1
    57    24    21    1
    58    45    46    1
    59    50    51   ar
    60    43    42    1
    61    85    79   am
    62    80    79    2
    63    70    71    1
    64    70    69    1
    65     3     4    2
    66    79    78    1
    67    21    20    1
    68    21    22    1
    69    77    71   am
    70    77    78    1
    71    71    72    2
    72    46    47    2
    73    46    53   am
    74    42    39    1
    75    69    63   am
    76    64    63    2
    77    78    81    1
    78    63    62    1
    79    23    22    2
    80    22    26   am
    81    41    40    2
    82    40    39    1
    83    53    54    1
    84   123   122    2
    85    39    38    1
    86    81    82    1
    87    34    32   ar
    88    34    36   ar
    89    61    62    1
    90    61    55   am
    91    62    65    1
    92    59    58   ar
    93    26    27    1
    94    37    36    1
    95    32    31   ar
    96   120   121    1
    97    55    54    1
    98    55    56    2
    99    54    57    1
   100    83    82   ar
   101   122   121    1
   102    36    35   ar
   103    82    84   ar
   104    58    57    1
   105    58    60   ar
   106   121   124    1
   107    65    66    1
   108    65    67    1
   109    66    68    1
   110    27    30    1
   111    27    28    1
   112    31    30    1
   113    31    33   ar
   114   124   125    1
   115    35    33   ar
   116     9    10    1
   117    28    29    2
   118    11    10    1
   119    11    12    2
   120   125   126    1
   121   126   127    1
   122   127   128    1
   123   154   152    1
   124   153   152    1
   125   152   151    1
   126   137   135   ar
   127   137   139   ar
   128   161   160   ar
   129   135   134   ar
   130   139   138   ar
   131   151   148    1
   132   148   147    1
   133   148   149    1
   134   146   144    1
   135   160   162   ar
   136   160   159    1
   137   155   149   am
   138   155   156    1
   139   158   157    2
   140   134   133    1
   141   134   136   ar
   142   138   136   ar
   143   149   150    2
   144   130   129    1
   145   130   133    1
   146   130   131    1
   147   159   156    1
   148   143   142    2
   149   140   131   am
   150   140   141    1
   151   144   145    1
   152   144   141    1
   153   157   156    1
   154   131   132    2
   155   141   142    1
