@<TRIPOS>MOLECULE
tmp/1cjfC00.pdb
 134 131 0 0 0
SMALL
GASTEIGER

@<TRIPOS>ATOM
      1  N        104.4000   16.8190   37.7520 N.3     1  GLY1       -0.1210
      2  CA       103.6280   17.8670   38.5100 C.3     1  GLY1        0.1956
      3  C        102.6900   18.6300   37.5970 C.2     1  GLY1        0.2611
      4  O        101.5920   18.1550   37.3150 O.2     1  GLY1       -0.2717
      5  N        103.1110   19.8060   37.1350 N.am    2  TRP2       -0.1976
      6  CA       102.2850   20.6030   36.2280 C.3     2  TRP2        0.1640
      7  C        102.2710   19.9040   34.8670 C.2     2  TRP2        0.2290
      8  O        101.3150   20.0140   34.1060 O.2     2  TRP2       -0.2864
      9  CB       102.8400   22.0280   36.0960 C.3     2  TRP2        0.0576
     10  CG       102.4670   22.9200   37.2530 C.ar    2  TRP2        0.0006
     11  CD1      103.2900   23.3500   38.2560 C.ar    2  TRP2        0.0946
     12  CD2      101.1650   23.4380   37.5570 C.ar    2  TRP2        0.0152
     13  NE1      102.5850   24.0970   39.1630 N.ar    2  TRP2       -0.2442
     14  CE2      101.2780   24.1700   38.7600 C.ar    2  TRP2        0.0810
     15  CE3       99.9100   23.3550   36.9300 C.ar    2  TRP2        0.0012
     16  CZ2      100.1860   24.8160   39.3500 C.ar    2  TRP2        0.0191
     17  CZ3       98.8210   23.9980   37.5190 C.ar    2  TRP2        0.0001
     18  CH2       98.9700   24.7190   38.7180 C.ar    2  TRP2        0.0015
     19  N        101.6700   17.0390   34.1610 N.3     4  ALA4       -0.1231
     20  CA       100.5700   16.0940   34.0580 C.3     4  ALA4        0.1694
     21  C         99.3360   16.7360   33.4390 C.2     4  ALA4        0.2592
     22  O         98.4310   16.0360   32.9670 O.2     4  ALA4       -0.2718
     23  CB       100.2350   15.5630   35.4130 C.3     4  ALA4        0.0304
     24  N         99.2960   18.0670   33.4570 N.am    5  TYR5       -0.1976
     25  CA        98.1730   18.8090   32.8980 C.3     5  TYR5        0.1639
     26  C         98.2950   18.8270   31.3820 C.2     5  TYR5        0.2290
     27  O         97.2960   18.8280   30.6600 O.2     5  TYR5       -0.2864
     28  CB        98.1600   20.2300   33.4530 C.3     5  TYR5        0.0560
     29  CG        97.4940   20.3170   34.8060 C.ar    5  TYR5       -0.0198
     30  CD1       98.1220   19.8160   35.9460 C.ar    5  TYR5       -0.0009
     31  CD2       96.2350   20.8990   34.9500 C.ar    5  TYR5       -0.0009
     32  CE1       97.5160   19.8980   37.1970 C.ar    5  TYR5        0.0417
     33  CE2       95.6190   20.9850   36.1970 C.ar    5  TYR5        0.0417
     34  CZ        96.2650   20.4860   37.3090 C.ar    5  TYR5        0.1957
     35  OH        95.6680   20.5840   38.5350 O.3     5  TYR5       -0.2866
     36  N         96.9250   15.6870   30.0810 N.3     8  ASN8       -0.1240
     37  CA        95.4690   15.7140   30.0680 C.3     8  ASN8        0.1653
     38  C         94.9580   16.4390   28.8090 C.2     8  ASN8        0.2266
     39  O         94.0660   15.9480   28.1150 O.2     8  ASN8       -0.2867
     40  CB        94.9590   16.4380   31.3170 C.3     8  ASN8        0.1155
     41  CG        93.6170   15.9250   31.7860 C.2     8  ASN8        0.2627
     42  OD1       93.5250   14.8660   32.4040 O.2     8  ASN8       -0.2716
     43  ND2       92.5670   16.6780   31.5010 N.am    8  ASN8       -0.0877
     44  N         95.7240   14.3730   25.6040 N.3    11  ALA11      -0.1245
     45  CA        95.1640   13.0280   25.5770 C.3    11  ALA11       0.1562
     46  C         94.3040   12.6140   24.3750 C.2    11  ALA11       0.2260
     47  O         94.4540   11.4940   23.8650 O.2    11  ALA11      -0.2867
     48  CB        94.3820   12.7840   26.8660 C.3    11  ALA11       0.0290
     49  N        106.8660   37.1000   38.1140 N.3    26  SER26      -0.1203
     50  CA       107.9600   36.6670   37.2590 C.3    26  SER26       0.2005
     51  C        107.5120   35.5900   36.2910 C.2    26  SER26       0.2461
     52  O        107.7160   34.4090   36.5270 O.2    26  SER26      -0.2732
     53  CB       109.1260   36.1540   38.0950 C.3    26  SER26       0.2103
     54  OG       110.2600   35.9850   37.2670 O.3    26  SER26      -0.2182
     55  N        106.8970   36.0010   35.1770 N.am   27  PRO27      -0.2717
     56  CA       106.3800   35.1330   34.1130 C.3    27  PRO27       0.1535
     57  C        107.2310   33.9010   33.8080 C.2    27  PRO27       0.2599
     58  O        108.4520   33.9920   33.6250 O.2    27  PRO27      -0.2715
     59  CB       106.2700   36.0660   32.9000 C.3    27  PRO27       0.0310
     60  CG       106.7420   37.4340   33.3740 C.3    27  PRO27       0.0237
     61  CD       106.6720   37.4200   34.8630 C.3    27  PRO27       0.0939
     62  N        106.5800   32.7430   33.7530 N.am   28  SER28      -0.1950
     63  CA       107.2980   31.5170   33.4600 C.3    28  SER28       0.1924
     64  C        106.4490   30.3910   32.9260 C.2    28  SER28       0.2314
     65  O        105.2720   30.2570   33.2540 O.2    28  SER28      -0.2863
     66  CB       108.0260   31.0150   34.7020 C.3    28  SER28       0.2116
     67  OG       109.3250   30.5850   34.3480 O.3    28  SER28      -0.2180
     68  N        105.4490   27.0270   33.2590 N.3    30  TRP30      -0.1241
     69  CA       105.4190   25.9860   34.2720 C.3    30  TRP30       0.1605
     70  C        105.4180   24.5850   33.6680 C.2    30  TRP30       0.2264
     71  O        105.8940   23.6390   34.2850 O.2    30  TRP30      -0.2867
     72  CB       104.1840   26.1560   35.1470 C.3    30  TRP30       0.0550
     73  CG       104.2830   27.3310   36.0630 C.ar   30  TRP30       0.0003
     74  CD1      105.3200   28.2140   36.1540 C.ar   30  TRP30       0.0946
     75  CD2      103.3100   27.7550   37.0210 C.ar   30  TRP30       0.0152
     76  NE1      105.0540   29.1610   37.1090 N.ar   30  TRP30      -0.2442
     77  CE2      103.8260   28.9030   37.6580 C.ar   30  TRP30       0.0810
     78  CE3      102.0520   27.2760   37.4050 C.ar   30  TRP30       0.0012
     79  CZ2      103.1260   29.5800   38.6590 C.ar   30  TRP30       0.0191
     80  CZ3      101.3560   27.9500   38.4010 C.ar   30  TRP30       0.0001
     81  CH2      101.8960   29.0900   39.0160 C.ar   30  TRP30       0.0015
     82  N         96.3850   32.4260   38.8680 N.3   106  LYS106     -0.1245
     83  CA        97.8450   32.3680   38.8530 C.3   106  LYS106      0.1561
     84  C         98.4540   31.9150   37.5460 C.2   106  LYS106      0.2260
     85  O         99.6630   32.0490   37.3490 O.2   106  LYS106     -0.2867
     86  CB        98.3430   31.4250   39.9540 C.3   106  LYS106      0.0271
     87  CG        97.7050   31.6340   41.3100 C.3   106  LYS106      0.0035
     88  CD        98.6320   31.1430   42.4160 C.3   106  LYS106      0.0206
     89  CE        97.9220   31.0890   43.7600 C.3   106  LYS106      0.1093
     90  NZ        96.4610   30.7980   43.6180 N.3   106  LYS106     -0.1314
     91  N         89.6850   23.6470   31.4130 N.3   129  MET129     -0.1245
     92  CA        90.8550   23.4690   32.2600 C.3   129  MET129      0.1570
     93  C         91.0170   24.6870   33.1630 C.2   129  MET129      0.2261
     94  O         91.2620   24.5580   34.3600 O.2   129  MET129     -0.2867
     95  CB        92.1120   23.2960   31.4100 C.3   129  MET129      0.0387
     96  CG        93.3510   23.0070   32.2310 C.3   129  MET129      0.0595
     97  SD        93.1970   21.4290   33.0840 S.3   129  MET129     -0.1393
     98  CE        94.1600   20.3890   31.9820 C.3   129  MET129      0.0692
     99  N         88.7820   24.3730   36.0030 N.3   132  HIS132     -0.1226
    100  CA        89.1920   23.3870   36.9950 C.3   132  HIS132      0.1752
    101  C         90.1870   24.0530   37.9290 C.2   132  HIS132      0.2595
    102  O         90.1190   23.8960   39.1530 O.2   132  HIS132     -0.2718
    103  CB        89.8550   22.1880   36.3060 C.3   132  HIS132      0.0759
    104  CG        90.6730   21.3280   37.2230 C.ar  132  HIS132      0.0818
    105  ND1       90.1120   20.3880   38.0620 N.ar  132  HIS132     -0.2268
    106  CD2       92.0120   21.2490   37.4110 C.ar  132  HIS132      0.1154
    107  CE1       91.0700   19.7670   38.7260 C.ar  132  HIS132      0.1986
    108  NE2       92.2330   20.2700   38.3500 N.ar  132  HIS132     -0.2212
    109  N         91.1140   24.7970   37.3300 N.am  133  LEU133     -0.1980
    110  CA        92.1440   25.4960   38.0770 C.3   133  LEU133      0.1596
    111  C         91.4970   26.5440   38.9580 C.2   133  LEU133      0.2287
    112  O         91.6890   26.5570   40.1690 O.2   133  LEU133     -0.2864
    113  CB        93.1260   26.1470   37.1070 C.3   133  LEU133      0.0297
    114  CG        93.9710   25.1130   36.3680 C.3   133  LEU133      0.0022
    115  CD1       94.7280   25.7610   35.2160 C.3   133  LEU133      0.0001
    116  CD2       94.9310   24.4760   37.3600 C.3   133  LEU133      0.0001
    117  N         89.9750   25.5490   41.9810 N.3   136  SER136     -0.1217
    118  CA        90.9870   25.0120   42.8980 C.3   136  SER136      0.1889
    119  C         91.8180   26.1860   43.4050 C.2   136  SER136      0.2288
    120  O         92.9480   26.0090   43.8560 O.2   136  SER136     -0.2866
    121  CB        91.9150   24.0240   42.1780 C.3   136  SER136      0.2089
    122  OG        91.1870   23.0470   41.4510 O.3   136  SER136     -0.2183
    123  N         93.3890   28.3920   41.8810 N.3   138  TYR138     -0.1241
    124  CA        94.6450   28.5410   41.1660 C.3   138  TYR138      0.1605
    125  C         94.3910   29.3720   39.9300 C.2   138  TYR138      0.2264
    126  O         95.3340   29.5250   39.1250 O.2   138  TYR138     -0.2867
    127  CB        95.1900   27.1750   40.7510 C.3   138  TYR138      0.0534
    128  CG        96.4480   26.7850   41.4780 C.ar  138  TYR138     -0.0201
    129  CD1       97.6970   27.1440   40.9830 C.ar  138  TYR138     -0.0009
    130  CD2       96.3880   26.0580   42.6650 C.ar  138  TYR138     -0.0009
    131  CE1       98.8510   26.7900   41.6460 C.ar  138  TYR138      0.0417
    132  CE2       97.5400   25.6970   43.3420 C.ar  138  TYR138      0.0417
    133  CZ        98.7670   26.0660   42.8250 C.ar  138  TYR138      0.1957
    134  OH        99.9180   25.7060   43.4860 O.3   138  TYR138     -0.2866
@<TRIPOS>BOND
     1    47    46    2
     2    46    45    1
     3    45    44    1
     4    45    48    1
     5    39    38    2
     6    38    37    1
     7    37    36    1
     8    37    40    1
     9    27    26    2
    10    40    41    1
    11    26    25    1
    12    95    96    1
    13    95    92    1
    14    91    92    1
    15    43    41   am
    16    41    42    2
    17    98    97    1
    18    96    97    1
    19    92    93    1
    20    25    28    1
    21    25    24    1
    22    59    60    1
    23    59    56    1
    24    64    65    2
    25    64    63    1
    26    22    21    2
    27    93    94    2
    28    68    69    1
    29    60    61    1
    30    21    24   am
    31    21    20    1
    32    28    29    1
    33    63    62    1
    34    63    66    1
    35    58    57    2
    36    70    69    1
    37    70    71    2
    38    62    57   am
    39    57    56    1
    40    20    19    1
    41    20    23    1
    42     8     7    2
    43    56    55    1
    44    69    72    1
    45    67    66    1
    46    29    31   ar
    47    29    30   ar
    48    61    55    1
    49     7     6    1
    50    31    33   ar
    51    72    73    1
    52    55    51   am
    53   115   114    1
    54    30    32   ar
    55    99   100    1
    56    73    74   ar
    57    73    75   ar
    58     9     6    1
    59     9    10    1
    60    74    76   ar
    61    33    34   ar
    62     6     5    1
    63    51    52    2
    64    51    50    1
    65   103   100    1
    66   103   104    1
    67   114   113    1
    68   114   116    1
    69    15    17   ar
    70    15    12   ar
    71   100   101    1
    72    75    78   ar
    73    75    77   ar
    74   113   110    1
    75    76    77   ar
    76     5     3   am
    77    32    34   ar
    78   104   106   ar
    79   104   105   ar
    80    10    12   ar
    81    10    11   ar
    82    50    53    1
    83    50    49    1
    84    54    53    1
    85    34    35    1
    86     4     3    2
    87   109   101   am
    88   109   110    1
    89    85    84    2
    90    78    80   ar
    91   106   108   ar
    92    17    18   ar
    93    84    83    1
    94    12    14   ar
    95     3     2    1
    96    77    79   ar
    97     1     2    1
    98   101   102    2
    99   105   107   ar
   100   110   111    1
   101    11    13   ar
   102   108   107   ar
   103    80    81   ar
   104    79    81   ar
   105    18    16   ar
   106    14    13   ar
   107    14    16   ar
   108    83    82    1
   109    83    86    1
   110   111   112    2
   111   126   125    2
   112   125   124    1
   113    86    87    1
   114   127   124    1
   115   127   128    1
   116   129   128   ar
   117   129   131   ar
   118   124   123    1
   119    87    88    1
   120   122   121    1
   121   128   130   ar
   122   131   133   ar
   123   117   118    1
   124   121   118    1
   125    88    89    1
   126   130   132   ar
   127   133   132   ar
   128   133   134    1
   129   118   119    1
   130   119   120    2
   131    90    89    1
