@<TRIPOS>MOLECULE
tmp/1cjkB01.pdb
 115 110 0 0 0
SMALL
GASTEIGER

@<TRIPOS>ATOM
      1  N         56.7680  -15.2920   42.7010 N.3    13  PHE13      -0.1241
      2  CA        55.5520  -14.7330   43.2570 C.3    13  PHE13       0.1605
      3  C         54.8390  -13.9040   42.1980 C.2    13  PHE13       0.2264
      4  O         55.2100  -12.7630   41.9720 O.2    13  PHE13      -0.2867
      5  CB        55.8640  -13.8570   44.4620 C.3    13  PHE13       0.0534
      6  CG        56.1270  -14.6250   45.7230 C.ar   13  PHE13      -0.0203
      7  CD1       55.0770  -15.0060   46.5510 C.ar   13  PHE13      -0.0042
      8  CD2       57.4310  -14.9640   46.0980 C.ar   13  PHE13      -0.0042
      9  CE1       55.3090  -15.7120   47.7330 C.ar   13  PHE13      -0.0003
     10  CE2       57.6740  -15.6710   47.2810 C.ar   13  PHE13      -0.0003
     11  CZ        56.6020  -16.0440   48.0970 C.ar   13  PHE13      -0.0000
     12  N         51.3820  -22.8890   46.5700 N.3    62  LYS62      -0.1245
     13  CA        50.0980  -22.4140   47.0970 C.3    62  LYS62       0.1561
     14  C         49.7150  -21.1080   46.4210 C.2    62  LYS62       0.2260
     15  O         50.4100  -20.6390   45.5180 O.2    62  LYS62      -0.2867
     16  CB        50.2290  -22.1020   48.5980 C.3    62  LYS62       0.0271
     17  CG        50.9800  -20.8020   48.8820 C.3    62  LYS62       0.0035
     18  CD        51.2250  -20.5770   50.3550 C.3    62  LYS62       0.0206
     19  CE        52.3690  -21.4150   50.8370 C.3    62  LYS62       0.1093
     20  NZ        52.8910  -20.9210   52.1250 N.3    62  LYS62      -0.1314
     21  N         48.4370  -17.1990   47.7230 N.3    64  ILE64      -0.1245
     22  CA        48.2360  -16.3040   48.8430 C.3    64  ILE64       0.1561
     23  C         47.3160  -15.2040   48.3670 C.2    64  ILE64       0.2260
     24  O         47.7190  -14.3430   47.6030 O.2    64  ILE64      -0.2867
     25  CB        49.5610  -15.7080   49.3070 C.3    64  ILE64       0.0252
     26  CG1       50.5740  -16.8200   49.5700 C.3    64  ILE64       0.0019
     27  CG2       49.3530  -14.9360   50.5910 C.3    64  ILE64       0.0019
     28  CD1       51.9460  -16.3330   50.0230 C.3    64  ILE64       0.0001
     29  N         52.1020  -18.5650   43.9270 N.3    69  MET69      -0.1245
     30  CA        53.4770  -18.8530   44.3140 C.3    69  MET69       0.1570
     31  C         53.8390  -20.2650   43.9250 C.2    69  MET69       0.2261
     32  O         53.1120  -21.1950   44.2780 O.2    69  MET69      -0.2867
     33  CB        53.6290  -18.7090   45.8140 C.3    69  MET69       0.0387
     34  CG        54.9990  -19.1110   46.3250 C.3    69  MET69       0.0595
     35  SD        55.0330  -19.3560   48.1070 S.3    69  MET69      -0.1393
     36  CE        56.6940  -19.9970   48.3650 C.3    69  MET69       0.0692
     37  N         55.5910  -26.7380   52.3560 N.3   131  ASP131     -0.1225
     38  CA        55.9270  -25.3460   52.1580 C.3   131  ASP131      0.1805
     39  C         57.4430  -25.1900   52.1650 C.2   131  ASP131      0.2598
     40  O         58.1490  -26.1140   52.5430 O.2   131  ASP131     -0.2718
     41  CB        55.3020  -24.5230   53.2870 C.3   131  ASP131      0.1424
     42  CG        55.3090  -23.0270   53.0100 C.2   131  ASP131      0.3668
     43  OD1       55.2730  -22.6280   51.8200 O.co2 131  ASP131     -0.2456
     44  OD2       55.3380  -22.2550   53.9970 O.co2 131  ASP131     -0.2456
     45  N         57.9460  -24.0420   51.7260 N.am  132  ILE132     -0.1966
     46  CA        59.3790  -23.8160   51.7040 C.3   132  ILE132      0.1727
     47  C         59.7620  -22.5560   52.4710 C.2   132  ILE132      0.2616
     48  O         59.0000  -21.5840   52.4940 O.2   132  ILE132     -0.2715
     49  CB        59.9250  -23.7360   50.2760 C.3   132  ILE132      0.0290
     50  CG1       59.1860  -22.6670   49.4750 C.3   132  ILE132      0.0022
     51  CG2       59.8270  -25.0750   49.6050 C.3   132  ILE132      0.0023
     52  CD1       59.6930  -22.5190   48.0530 C.3   132  ILE132      0.0001
     53  N         60.9320  -22.5730   53.1100 N.am  133  TRP133     -0.1960
     54  CA        61.4030  -21.4330   53.8860 C.3   133  TRP133      0.1771
     55  C         62.8310  -21.0600   53.5500 C.2   133  TRP133      0.2620
     56  O         63.5920  -21.8690   53.0350 O.2   133  TRP133     -0.2715
     57  CB        61.2900  -21.7200   55.3820 C.3   133  TRP133      0.0590
     58  CG        59.8880  -21.8130   55.8890 C.ar  133  TRP133      0.0006
     59  CD1       59.1080  -20.7890   56.3260 C.ar  133  TRP133      0.0946
     60  CD2       59.0830  -22.9940   55.9720 C.ar  133  TRP133      0.0152
     61  NE1       57.8620  -21.2500   56.6710 N.ar  133  TRP133     -0.2442
     62  CE2       57.8180  -22.6030   56.4640 C.ar  133  TRP133      0.0810
     63  CE3       59.3030  -24.3470   55.6660 C.ar  133  TRP133      0.0012
     64  CZ2       56.7740  -23.5150   56.6600 C.ar  133  TRP133      0.0191
     65  CZ3       58.2670  -25.2520   55.8600 C.ar  133  TRP133      0.0001
     66  CH2       57.0190  -24.8300   56.3530 C.ar  133  TRP133      0.0015
     67  N         63.1970  -19.8230   53.8480 N.am  134  GLY134     -0.1954
     68  CA        64.5480  -19.3630   53.5760 C.3   134  GLY134      0.1869
     69  C         64.5600  -17.8960   53.1730 C.2   134  GLY134      0.2309
     70  O         63.5010  -17.2890   52.9400 O.2   134  GLY134     -0.2863
     71  N         63.1690  -17.0650   49.6300 N.3   137  VAL137     -0.1231
     72  CA        61.7350  -16.8620   49.5250 C.3   137  VAL137      0.1692
     73  C         61.3510  -15.4550   49.9490 C.2   137  VAL137      0.2592
     74  O         60.4820  -14.8510   49.3360 O.2   137  VAL137     -0.2718
     75  CB        60.9620  -17.8940   50.3720 C.3   137  VAL137      0.0266
     76  CG1       59.4410  -17.6940   50.2360 C.3   137  VAL137      0.0020
     77  CG2       61.3770  -19.3130   49.9900 C.3   137  VAL137      0.0020
     78  N         62.0160  -14.9340   50.9770 N.am  138  ASN138     -0.1974
     79  CA        61.7380  -13.5890   51.4910 C.3   138  ASN138      0.1688
     80  C         62.0680  -12.5470   50.4320 C.2   138  ASN138      0.2292
     81  O         61.2750  -11.6380   50.1860 O.2   138  ASN138     -0.2864
     82  CB        62.5520  -13.2950   52.7580 C.3   138  ASN138      0.1181
     83  CG        62.2070  -14.2170   53.9250 C.2   138  ASN138      0.2629
     84  OD1       63.0940  -14.6540   54.6670 O.2   138  ASN138     -0.2716
     85  ND2       60.9250  -14.5000   54.1030 N.am  138  ASN138     -0.0877
     86  N         59.7120  -12.5720   47.2730 N.3   141  SER141     -0.1202
     87  CA        58.4740  -11.8490   47.5420 C.3   141  SER141      0.2020
     88  C         58.6530  -10.3560   47.3800 C.2   141  SER141      0.2618
     89  O         57.7710   -9.6760   46.8630 O.2   141  SER141     -0.2717
     90  CB        57.9460  -12.1640   48.9310 C.3   141  SER141      0.2103
     91  OG        56.7170  -11.4880   49.1400 O.3   141  SER141     -0.2182
     92  N         59.7910   -9.8430   47.8260 N.am  142  ARG142     -0.1979
     93  CA        60.0830   -8.4140   47.7130 C.3   142  ARG142      0.1597
     94  C         60.2190   -8.0310   46.2550 C.2   142  ARG142      0.2287
     95  O         59.8370   -6.9380   45.8730 O.2   142  ARG142     -0.2864
     96  CB        61.3580   -8.0600   48.4640 C.3   142  ARG142      0.0334
     97  CG        61.2700   -8.2160   49.9780 C.3   142  ARG142      0.0492
     98  CD        60.3380   -7.1800   50.6100 C.3   142  ARG142      0.2205
     99  NE        60.5120   -7.0640   52.0650 N.pl3 142  ARG142     -0.0865
    100  CZ        59.6080   -7.4520   52.9640 C.cat 142  ARG142      0.5346
    101  NH1       58.4480   -7.9830   52.5640 N.pl3 142  ARG142      0.1354
    102  NH2       59.8670   -7.3330   54.2650 N.pl3 142  ARG142      0.1354
    103  N         62.8470   -3.6060   52.3460 N.3   178  LYS178     -0.1231
    104  CA        62.5370   -3.7180   53.7760 C.3   178  LYS178      0.1693
    105  C         63.3320   -4.8350   54.4410 C.2   178  LYS178      0.2592
    106  O         63.2070   -5.9980   54.0610 O.2   178  LYS178     -0.2718
    107  CB        61.0400   -3.9560   53.9550 C.3   178  LYS178      0.0285
    108  CG        60.5840   -4.2280   55.3870 C.3   178  LYS178      0.0035
    109  CD        60.7930   -3.0330   56.2920 C.3   178  LYS178      0.0206
    110  CE        60.0460   -3.2090   57.6190 C.3   178  LYS178      0.1093
    111  NZ        58.5570   -3.3020   57.4490 N.3   178  LYS178     -0.1314
    112  N         64.1610   -4.4630   55.4180 N.am  179  GLY179     -0.1957
    113  CA        64.9830   -5.4320   56.1210 C.3   179  GLY179      0.1869
    114  C         66.2560   -5.8590   55.4100 C.2   179  GLY179      0.2309
    115  O         67.1790   -6.3660   56.0520 O.2   179  GLY179     -0.2863
@<TRIPOS>BOND
     1     4     3    2
     2     3     2    1
     3     1     2    1
     4     2     5    1
     5    31    32    2
     6    31    30    1
     7    29    30    1
     8    30    33    1
     9     5     6    1
    10    15    14    2
    11     6     8   ar
    12     6     7   ar
    13    33    34    1
    14    95    94    2
    15     8    10   ar
    16    94    93    1
    17    34    35    1
    18    14    13    1
    19     7     9   ar
    20    12    13    1
    21    89    88    2
    22    13    16    1
    23    86    87    1
    24    10    11   ar
    25    88    87    1
    26    88    92   am
    27    87    90    1
    28    24    23    2
    29    93    92    1
    30    93    96    1
    31    21    22    1
    32     9    11   ar
    33    52    50    1
    34    35    36    1
    35    23    22    1
    36    96    97    1
    37    16    17    1
    38    22    25    1
    39    17    18    1
    40    90    91    1
    41    25    26    1
    42    25    27    1
    43    74    73    2
    44    50    49    1
    45    72    71    1
    46    72    73    1
    47    72    75    1
    48    26    28    1
    49    51    49    1
    50    73    78   am
    51    97    98    1
    52    77    75    1
    53    81    80    2
    54    76    75    1
    55    49    46    1
    56    18    19    1
    57    80    79    1
    58    98    99    1
    59    19    20    1
    60    78    79    1
    61    79    82    1
    62    46    45    1
    63    46    47    1
    64    45    39   am
    65    43    42   ar
    66    99   100    2
    67    38    39    1
    68    38    37    1
    69    38    41    1
    70    39    40    2
    71   103   104    1
    72    47    48    2
    73    47    53   am
    74   101   100    1
    75    82    83    1
    76    70    69    2
    77   100   102    1
    78    42    41    1
    79    42    44   ar
    80    56    55    2
    81    53    54    1
    82    69    68    1
    83    55    67   am
    84    55    54    1
    85    68    67    1
    86   104   107    1
    87   104   105    1
    88    54    57    1
    89    83    85   am
    90    83    84    2
    91   107   108    1
    92   106   105    2
    93   105   112   am
    94    57    58    1
    95   108   109    1
    96   114   115    2
    97   114   113    1
    98   112   113    1
    99    63    65   ar
   100    63    60   ar
   101    65    66   ar
   102    58    60   ar
   103    58    59   ar
   104    60    62   ar
   105   109   110    1
   106    59    61   ar
   107    66    64   ar
   108    62    64   ar
   109    62    61   ar
   110   111   110    1
