@<TRIPOS>MOLECULE
tmp/1cjkB00.pdb
 80 77 0 0 0
SMALL
GASTEIGER

@<TRIPOS>ATOM
      1  N         47.6660   -7.2240   41.2740 N.3    17  PRO17      -0.2116
      2  CA        47.3950   -6.0270   42.0760 C.3    17  PRO17       0.1372
      3  C         45.9760   -5.4770   41.9900 C.2    17  PRO17       0.2244
      4  O         45.3540   -5.2000   43.0170 O.2    17  PRO17      -0.2868
      5  CB        48.4030   -5.0200   41.5150 C.3    17  PRO17       0.0268
      6  CG        49.5520   -5.8740   41.1310 C.3    17  PRO17       0.0207
      7  CD        48.8540   -7.0090   40.4260 C.3    17  PRO17       0.0892
      8  N         43.1570   -6.8030   41.5040 N.3    19  PHE19      -0.1227
      9  CA        42.0320   -7.5950   41.9810 C.3    19  PHE19       0.1736
     10  C         41.3700   -7.0440   43.2430 C.2    19  PHE19       0.2595
     11  O         40.1410   -7.0100   43.3240 O.2    19  PHE19      -0.2718
     12  CB        42.4190   -9.0450   42.1950 C.3    19  PHE19       0.0547
     13  CG        41.2390   -9.9540   42.3590 C.ar   19  PHE19      -0.0202
     14  CD1       40.4230  -10.2630   41.2670 C.ar   19  PHE19      -0.0042
     15  CD2       40.9050  -10.4720   43.6100 C.ar   19  PHE19      -0.0042
     16  CE1       39.2970  -11.0650   41.4220 C.ar   19  PHE19      -0.0003
     17  CE2       39.7730  -11.2810   43.7770 C.ar   19  PHE19      -0.0003
     18  CZ        38.9680  -11.5750   42.6810 C.ar   19  PHE19      -0.0000
     19  N         42.1760   -6.6110   44.2190 N.am   20  LYS20      -0.1980
     20  CA        41.6660   -6.0620   45.4820 C.3    20  LYS20       0.1596
     21  C         40.6770   -4.9370   45.2250 C.2    20  LYS20       0.2287
     22  O         39.6810   -4.7930   45.9440 O.2    20  LYS20      -0.2864
     23  CB        42.8190   -5.5650   46.3420 C.3    20  LYS20       0.0298
     24  CG        42.4320   -5.2670   47.7700 C.3    20  LYS20       0.0038
     25  CD        43.6630   -5.0210   48.6550 C.3    20  LYS20       0.0206
     26  CE        44.4160   -3.7610   48.2450 C.3    20  LYS20       0.1093
     27  NZ        45.6120   -3.5100   49.1110 N.3    20  LYS20      -0.1314
     28  N         37.3640   -6.3330   43.8220 N.3    23  TYR23      -0.1241
     29  CA        36.5720   -7.0310   44.8250 C.3    23  TYR23       0.1605
     30  C         35.6240   -6.1240   45.5890 C.2    23  TYR23       0.2264
     31  O         36.0570   -5.1860   46.2720 O.2    23  TYR23      -0.2867
     32  CB        37.4760   -7.7620   45.8050 C.3    23  TYR23       0.0534
     33  CG        36.7310   -8.6020   46.8230 C.ar   23  TYR23      -0.0201
     34  CD1       36.1540   -9.8240   46.4650 C.ar   23  TYR23      -0.0009
     35  CD2       36.6080   -8.1800   48.1530 C.ar   23  TYR23      -0.0009
     36  CE1       35.4720  -10.5990   47.4120 C.ar   23  TYR23       0.0417
     37  CE2       35.9320   -8.9500   49.1030 C.ar   23  TYR23       0.0417
     38  CZ        35.3670  -10.1540   48.7290 C.ar   23  TYR23       0.1957
     39  OH        34.6920  -10.9080   49.6650 O.3    23  TYR23      -0.2866
     40  N         34.6620  -13.8210   43.8120 N.3    36  LEU36      -0.1245
     41  CA        35.4730  -14.9650   44.1620 C.3    36  LEU36       0.1561
     42  C         35.3120  -16.0900   43.1730 C.2    36  LEU36       0.2260
     43  O         36.1470  -16.9820   43.1120 O.2    36  LEU36      -0.2867
     44  CB        35.1530  -15.4460   45.5650 C.3    36  LEU36       0.0270
     45  CG        35.6250  -14.5640   46.7220 C.3    36  LEU36       0.0019
     46  CD1       34.9910  -15.0010   48.0340 C.3    36  LEU36       0.0001
     47  CD2       37.1220  -14.6470   46.8300 C.3    36  LEU36       0.0001
     48  N         37.8710  -15.3430   40.3990 N.3    39  LEU39      -0.1245
     49  CA        39.2080  -15.6510   40.8950 C.3    39  LEU39       0.1561
     50  C         39.4250  -17.1370   40.8100 C.2    39  LEU39       0.2260
     51  O         40.4950  -17.5900   40.4370 O.2    39  LEU39      -0.2867
     52  CB        39.4050  -15.1800   42.3330 C.3    39  LEU39       0.0270
     53  CG        40.7850  -15.4590   42.9420 C.3    39  LEU39       0.0019
     54  CD1       41.9050  -14.9200   42.0610 C.3    39  LEU39       0.0001
     55  CD2       40.8810  -14.8780   44.3500 C.3    39  LEU39       0.0001
     56  N         48.4370  -17.1990   47.7230 N.3    64  ILE64      -0.1231
     57  CA        48.2360  -16.3040   48.8430 C.3    64  ILE64       0.1692
     58  C         47.3160  -15.2040   48.3670 C.2    64  ILE64       0.2593
     59  O         47.7190  -14.3430   47.6030 O.2    64  ILE64      -0.2718
     60  CB        49.5610  -15.7080   49.3070 C.3    64  ILE64       0.0266
     61  CG1       50.5740  -16.8200   49.5700 C.3    64  ILE64       0.0019
     62  CG2       49.3530  -14.9360   50.5910 C.3    64  ILE64       0.0020
     63  CD1       51.9460  -16.3330   50.0230 C.3    64  ILE64       0.0001
     64  N         46.0710  -15.2350   48.8130 N.am   65  GLY65      -0.1942
     65  CA        45.1360  -14.2240   48.3640 C.3    65  GLY65       0.2014
     66  C         44.9090  -14.4440   46.8770 C.2    65  GLY65       0.2640
     67  O         44.2260  -15.3940   46.4820 O.2    65  GLY65      -0.2714
     68  N         45.4810  -13.5710   46.0550 N.am   66  SER66      -0.1935
     69  CA        45.3800  -13.7080   44.6080 C.3    66  SER66       0.2055
     70  C         46.8110  -13.7340   44.0410 C.2    66  SER66       0.2643
     71  O         47.0360  -13.4340   42.8710 O.2    66  SER66      -0.2714
     72  CB        44.5660  -12.5760   43.9940 C.3    66  SER66       0.2130
     73  OG        45.2300  -11.3380   44.1140 O.3    66  SER66      -0.2179
     74  N         47.7720  -14.0950   44.8810 N.am   67  THR67      -0.1950
     75  CA        49.1550  -14.1790   44.4810 C.3    67  THR67       0.1897
     76  C         49.5270  -15.6350   44.2920 C.2    67  THR67       0.2313
     77  O         49.4940  -16.4080   45.2510 O.2    67  THR67      -0.2863
     78  CB        50.0530  -13.5930   45.5670 C.3    67  THR67       0.1794
     79  OG1       49.7600  -12.1990   45.7090 O.3    67  THR67      -0.2208
     80  CG2       51.5090  -13.7850   45.2320 C.3    67  THR67       0.0378
@<TRIPOS>BOND
     1    48    49    1
     2     7     6    1
     3     7     1    1
     4    51    50    2
     5    50    49    1
     6    49    52    1
     7     6     5    1
     8    14    16   ar
     9    14    13   ar
    10     1     2    1
    11    16    18   ar
    12     8     9    1
    13     5     2    1
    14     9    12    1
    15     9    10    1
    16     3     2    1
    17     3     4    2
    18    54    53    1
    19    12    13    1
    20    52    53    1
    21    13    15   ar
    22    18    17   ar
    23    71    70    2
    24    53    55    1
    25    43    42    2
    26    42    41    1
    27    10    11    2
    28    10    19   am
    29    15    17   ar
    30    40    41    1
    31    28    29    1
    32    72    73    1
    33    72    69    1
    34    70    69    1
    35    70    74   am
    36    41    44    1
    37    19    20    1
    38    76    75    1
    39    76    77    2
    40    75    74    1
    41    75    78    1
    42    69    68    1
    43    29    30    1
    44    29    32    1
    45    21    20    1
    46    21    22    2
    47    80    78    1
    48    20    23    1
    49    44    45    1
    50    78    79    1
    51    30    31    2
    52    32    33    1
    53    68    66   am
    54    23    24    1
    55    34    33   ar
    56    34    36   ar
    57    67    66    2
    58    45    47    1
    59    45    46    1
    60    33    35   ar
    61    66    65    1
    62    36    38   ar
    63    59    58    2
    64    56    57    1
    65    24    25    1
    66    35    37   ar
    67    26    25    1
    68    26    27    1
    69    65    64    1
    70    58    64   am
    71    58    57    1
    72    38    37   ar
    73    38    39    1
    74    57    60    1
    75    60    61    1
    76    60    62    1
    77    61    63    1
