@<TRIPOS>MOLECULE
tmp/1cjpB00.pdb
 79 76 0 0 0
SMALL
GASTEIGER

@<TRIPOS>ATOM
      1  N         19.3800  -34.6700    6.0070 N.3    12  TYR12      -0.1241
      2  CA        19.1750  -36.0910    5.7760 C.3    12  TYR12       0.1605
      3  C         17.7000  -36.4540    5.7310 C.2    12  TYR12       0.2264
      4  O         16.9420  -36.2120    6.6830 O.2    12  TYR12      -0.2867
      5  CB        19.8840  -36.9130    6.8460 C.3    12  TYR12       0.0534
      6  CG        19.8690  -38.4010    6.5800 C.ar   12  TYR12      -0.0201
      7  CD1       20.8690  -38.9960    5.8140 C.ar   12  TYR12      -0.0009
      8  CD2       18.8500  -39.2130    7.0770 C.ar   12  TYR12      -0.0009
      9  CE1       20.8550  -40.3640    5.5410 C.ar   12  TYR12       0.0417
     10  CE2       18.8300  -40.5810    6.8100 C.ar   12  TYR12       0.0417
     11  CZ        19.8350  -41.1430    6.0370 C.ar   12  TYR12       0.1957
     12  OH        19.8170  -42.4770    5.7350 O.3    12  TYR12      -0.2866
     13  N         14.7050  -38.5150    6.2940 N.3    14  ASN14      -0.1240
     14  CA        14.2030  -39.6290    7.0890 C.3    14  ASN14       0.1653
     15  C         12.7700  -39.8280    6.6240 C.2    14  ASN14       0.2266
     16  O         11.8470  -39.2140    7.1620 O.2    14  ASN14      -0.2867
     17  CB        14.2020  -39.2900    8.5790 C.3    14  ASN14       0.1155
     18  CG        15.5850  -38.9570    9.1080 C.2    14  ASN14       0.2627
     19  OD1       15.9750  -37.7960    9.1510 O.2    14  ASN14      -0.2716
     20  ND2       16.3170  -39.9650    9.5360 N.am   14  ASN14      -0.0877
     21  N         24.0570  -38.3400   13.3930 N.3    98  GLY98      -0.1210
     22  CA        23.5730  -39.6370   13.8220 C.3    98  GLY98       0.1956
     23  C         24.5470  -40.6750   13.3190 C.2    98  GLY98       0.2612
     24  O         25.7210  -40.6750   13.6930 O.2    98  GLY98      -0.2717
     25  N         24.0690  -41.5510   12.4470 N.am   99  LEU99      -0.1965
     26  CA        24.9200  -42.5790   11.8710 C.3    99  LEU99       0.1728
     27  C         25.8700  -41.8410   10.9420 C.2    99  LEU99       0.2616
     28  O         27.0610  -42.1200   10.8840 O.2    99  LEU99      -0.2715
     29  CB        24.0720  -43.5610   11.0710 C.3    99  LEU99       0.0311
     30  CG        24.7630  -44.8420   10.6410 C.3    99  LEU99       0.0022
     31  CD1       24.9550  -45.7030   11.8580 C.3    99  LEU99       0.0001
     32  CD2       23.8890  -45.5380    9.6440 C.3    99  LEU99       0.0001
     33  N         25.3090  -40.9130   10.1840 N.am  100  TYR100     -0.1974
     34  CA        26.0910  -40.1070    9.2660 C.3   100  TYR100      0.1639
     35  C         26.3510  -38.7850    9.9760 C.2   100  TYR100      0.2290
     36  O         25.7180  -38.4950   11.0080 O.2   100  TYR100     -0.2864
     37  CB        25.3290  -39.9160    7.9590 C.3   100  TYR100      0.0560
     38  CG        25.1500  -41.2200    7.2370 C.ar  100  TYR100     -0.0198
     39  CD1       26.2580  -41.9940    6.9060 C.ar  100  TYR100     -0.0009
     40  CD2       23.8840  -41.7200    6.9460 C.ar  100  TYR100     -0.0009
     41  CE1       26.1210  -43.2270    6.3160 C.ar  100  TYR100      0.0417
     42  CE2       23.7330  -42.9640    6.3500 C.ar  100  TYR100      0.0417
     43  CZ        24.8660  -43.7060    6.0400 C.ar  100  TYR100      0.1957
     44  OH        24.7770  -44.9310    5.4430 O.3   100  TYR100     -0.2866
     45  N         24.3750  -35.6590    7.4770 N.3   207  ALA207     -0.1231
     46  CA        23.2730  -35.6780    8.4290 C.3   207  ALA207      0.1694
     47  C         23.7440  -34.9050    9.6510 C.2   207  ALA207      0.2592
     48  O         24.9560  -34.7270    9.8200 O.2   207  ALA207     -0.2718
     49  CB        22.9370  -37.1050    8.8070 C.3   207  ALA207      0.0304
     50  N         22.8270  -34.4380   10.5030 N.am  208  ASP208     -0.1974
     51  CA        21.3930  -34.4540   10.2500 C.3   208  ASP208      0.1709
     52  C         20.8000  -33.0920    9.9200 C.2   208  ASP208      0.2293
     53  O         19.8030  -33.0020    9.2120 O.2   208  ASP208     -0.2864
     54  CB        20.6700  -35.0610   11.4420 C.3   208  ASP208      0.1436
     55  CG        20.6150  -36.5640   11.3650 C.2   208  ASP208      0.3671
     56  OD1       21.5760  -37.2330   11.7920 O.co2 208  ASP208     -0.2456
     57  OD2       19.6080  -37.0790   10.8540 O.co2 208  ASP208     -0.2456
     58  N         19.5590  -37.3900   19.2950 N.3   226  THR226     -0.1203
     59  CA        20.6160  -37.2340   18.2950 C.3   226  THR226      0.1994
     60  C         20.0410  -37.6420   16.9420 C.2   226  THR226      0.2618
     61  O         18.8870  -38.0590   16.8460 O.2   226  THR226     -0.2717
     62  CB        21.8490  -38.1210   18.5930 C.3   226  THR226      0.1784
     63  OG1       21.4190  -39.4130   19.0320 O.3   226  THR226     -0.2211
     64  CG2       22.7090  -37.5070   19.6660 C.3   226  THR226      0.0376
     65  N         20.8250  -37.4940   15.8890 N.am  227  GLY227     -0.1942
     66  CA        20.3420  -37.8790   14.5790 C.3   227  GLY227      0.2014
     67  C         19.1050  -37.1670   14.0640 C.2   227  GLY227      0.2638
     68  O         19.0360  -35.9390   14.0760 O.2   227  GLY227     -0.2714
     69  N         18.1170  -37.9420   13.6290 N.am  228  ARG228     -0.1977
     70  CA        16.8890  -37.3950   13.0480 C.3   228  ARG228      0.1597
     71  C         16.0760  -36.4110   13.8830 C.2   228  ARG228      0.2287
     72  O         15.3140  -35.6270   13.3290 O.2   228  ARG228     -0.2864
     73  CB        15.9760  -38.5280   12.5550 C.3   228  ARG228      0.0334
     74  CG        15.6080  -39.5230   13.6350 C.3   228  ARG228      0.0492
     75  CD        14.2270  -40.0850   13.4180 C.3   228  ARG228      0.2205
     76  NE        14.2400  -41.4750   12.9770 N.pl3 228  ARG228     -0.0865
     77  CZ        13.4720  -42.4300   13.4960 C.cat 228  ARG228      0.5346
     78  NH1       12.6280  -42.1590   14.4830 N.pl3 228  ARG228      0.1354
     79  NH2       13.4600  -43.6330   12.9430 N.pl3 228  ARG228      0.1354
@<TRIPOS>BOND
     1    44    43    1
     2     9     7   ar
     3     9    11   ar
     4     3     2    1
     5     3     4    2
     6    12    11    1
     7     2     1    1
     8     2     5    1
     9     7     6   ar
    10    11    10   ar
    11    43    41   ar
    12    43    42   ar
    13    13    14    1
    14    41    39   ar
    15    42    40   ar
    16     6     5    1
    17     6     8   ar
    18    15    14    1
    19    15    16    2
    20    10     8   ar
    21    39    38   ar
    22    40    38   ar
    23    14    17    1
    24    38    37    1
    25    45    46    1
    26    37    34    1
    27    46    49    1
    28    46    47    1
    29    17    18    1
    30    18    19    2
    31    18    20   am
    32    53    52    2
    33    34    35    1
    34    34    33    1
    35    32    30    1
    36    47    48    2
    37    47    50   am
    38    52    51    1
    39    35    36    2
    40    33    27   am
    41    51    50    1
    42    51    54    1
    43    30    29    1
    44    30    31    1
    45    57    55   ar
    46    28    27    2
    47    27    26    1
    48    29    26    1
    49    55    54    1
    50    55    56   ar
    51    26    25    1
    52    25    23   am
    53    73    70    1
    54    73    74    1
    55    79    77    1
    56    76    75    1
    57    76    77    2
    58    70    69    1
    59    70    71    1
    60    23    24    2
    61    23    22    1
    62    72    71    2
    63    21    22    1
    64    75    74    1
    65    77    78    1
    66    69    67   am
    67    67    68    2
    68    67    66    1
    69    66    65    1
    70    65    60   am
    71    61    60    2
    72    60    59    1
    73    59    62    1
    74    59    58    1
    75    62    63    1
    76    62    64    1
