@<TRIPOS>MOLECULE
tmp/1cjvB01.pdb
 115 110 0 0 0
SMALL
GASTEIGER

@<TRIPOS>ATOM
      1  N         56.5340  -15.2450   42.2310 N.3    11  PHE11      -0.1241
      2  CA        55.2950  -14.7190   42.7890 C.3    11  PHE11       0.1605
      3  C         54.6490  -13.8770   41.7020 C.2    11  PHE11       0.2264
      4  O         55.1960  -12.8440   41.3080 O.2    11  PHE11      -0.2867
      5  CB        55.5490  -13.8490   44.0080 C.3    11  PHE11       0.0534
      6  CG        55.9150  -14.6110   45.2350 C.ar   11  PHE11      -0.0203
      7  CD1       57.2090  -15.0770   45.4180 C.ar   11  PHE11      -0.0042
      8  CD2       54.9870  -14.8130   46.2450 C.ar   11  PHE11      -0.0042
      9  CE1       57.5750  -15.7270   46.6010 C.ar   11  PHE11      -0.0003
     10  CE2       55.3440  -15.4630   47.4360 C.ar   11  PHE11      -0.0003
     11  CZ        56.6360  -15.9170   47.6110 C.ar   11  PHE11      -0.0000
     12  N         51.3460  -22.6080   46.3500 N.3    60  LYS60      -0.1245
     13  CA        50.0620  -22.1890   46.8960 C.3    60  LYS60       0.1561
     14  C         49.5440  -20.9130   46.2710 C.2    60  LYS60       0.2260
     15  O         50.2300  -20.2830   45.4750 O.2    60  LYS60      -0.2867
     16  CB        50.1880  -21.9520   48.4020 C.3    60  LYS60       0.0271
     17  CG        51.3100  -21.0230   48.8040 C.3    60  LYS60       0.0035
     18  CD        50.9790  -20.3380   50.1100 C.3    60  LYS60       0.0206
     19  CE        52.2150  -20.0650   50.9340 C.3    60  LYS60       0.1093
     20  NZ        52.7110  -21.3040   51.5660 N.3    60  LYS60      -0.1314
     21  N         48.3280  -17.2280   47.3340 N.3    62  ILE62      -0.1245
     22  CA        48.1900  -16.2500   48.3960 C.3    62  ILE62       0.1561
     23  C         47.2610  -15.1310   47.9000 C.2    62  ILE62       0.2260
     24  O         47.6820  -14.2700   47.1060 O.2    62  ILE62      -0.2867
     25  CB        49.5550  -15.6670   48.8050 C.3    62  ILE62       0.0252
     26  CG1       50.5330  -16.7730   49.1660 C.3    62  ILE62       0.0019
     27  CG2       49.4060  -14.7610   50.0140 C.3    62  ILE62       0.0019
     28  CD1       51.7710  -16.8090   48.2920 C.3    62  ILE62       0.0001
     29  N         51.9220  -18.4420   43.6150 N.3    67  MET67      -0.1245
     30  CA        53.2960  -18.7870   44.0180 C.3    67  MET67       0.1570
     31  C         53.7150  -20.1870   43.5320 C.2    67  MET67       0.2261
     32  O         53.0370  -21.1730   43.8260 O.2    67  MET67      -0.2867
     33  CB        53.4190  -18.7050   45.5460 C.3    67  MET67       0.0387
     34  CG        54.7630  -19.1920   46.1270 C.3    67  MET67       0.0595
     35  SD        54.7740  -19.2010   47.9540 S.3    67  MET67      -0.1393
     36  CE        56.4400  -19.6370   48.3360 C.3    67  MET67       0.0692
     37  N         55.3800  -26.6180   51.9200 N.3   129  ASP129     -0.1225
     38  CA        55.7470  -25.2200   51.7160 C.3   129  ASP129      0.1805
     39  C         57.2700  -25.0770   51.6500 C.2   129  ASP129      0.2598
     40  O         57.9920  -26.0310   51.8900 O.2   129  ASP129     -0.2718
     41  CB        55.1840  -24.4060   52.8970 C.3   129  ASP129      0.1424
     42  CG        55.0500  -22.9150   52.6030 C.2   129  ASP129      0.3668
     43  OD1       55.4120  -22.4680   51.4960 O.co2 129  ASP129     -0.2456
     44  OD2       54.5650  -22.1840   53.4960 O.co2 129  ASP129     -0.2456
     45  N         57.7630  -23.9000   51.2900 N.am  130  ILE130     -0.1966
     46  CA        59.2000  -23.6840   51.2320 C.3   130  ILE130      0.1727
     47  C         59.5580  -22.4050   51.9660 C.2   130  ILE130      0.2616
     48  O         58.7570  -21.4790   52.0290 O.2   130  ILE130     -0.2715
     49  CB        59.7170  -23.6100   49.7940 C.3   130  ILE130      0.0290
     50  CG1       59.1030  -22.4220   49.0570 C.3   130  ILE130      0.0022
     51  CG2       59.4330  -24.9100   49.0590 C.3   130  ILE130      0.0023
     52  CD1       59.7070  -22.1970   47.6890 C.3   130  ILE130      0.0001
     53  N         60.7600  -22.3550   52.5250 N.am  131  TRP131     -0.1960
     54  CA        61.1950  -21.1840   53.2680 C.3   131  TRP131      0.1771
     55  C         62.5730  -20.7290   52.8520 C.2   131  TRP131      0.2620
     56  O         63.2060  -21.3390   52.0100 O.2   131  TRP131     -0.2715
     57  CB        61.2130  -21.4820   54.7690 C.3   131  TRP131      0.0590
     58  CG        59.8630  -21.6500   55.3670 C.ar  131  TRP131      0.0006
     59  CD1       59.0590  -20.6660   55.8610 C.ar  131  TRP131      0.0946
     60  CD2       59.1180  -22.8670   55.4700 C.ar  131  TRP131      0.0152
     61  NE1       57.8500  -21.1920   56.2550 N.ar  131  TRP131     -0.2442
     62  CE2       57.8600  -22.5440   56.0260 C.ar  131  TRP131      0.0810
     63  CE3       59.3880  -24.2050   55.1430 C.ar  131  TRP131      0.0012
     64  CZ2       56.8730  -23.5010   56.2520 C.ar  131  TRP131      0.0191
     65  CZ3       58.4040  -25.1600   55.3680 C.ar  131  TRP131      0.0001
     66  CH2       57.1650  -24.8010   55.9200 C.ar  131  TRP131      0.0015
     67  N         63.0410  -19.6590   53.4810 N.am  132  GLY132     -0.1954
     68  CA        64.3620  -19.1330   53.1870 C.3   132  GLY132      0.1869
     69  C         64.3880  -17.6710   52.7790 C.2   132  GLY132      0.2309
     70  O         63.3520  -17.0730   52.4600 O.2   132  GLY132     -0.2863
     71  N         63.0110  -17.0710   49.2000 N.3   135  VAL135     -0.1231
     72  CA        61.5730  -16.8850   49.0590 C.3   135  VAL135      0.1692
     73  C         61.1580  -15.4560   49.4010 C.2   135  VAL135      0.2592
     74  O         60.3300  -14.8700   48.7120 O.2   135  VAL135     -0.2718
     75  CB        60.7710  -17.8970   49.8880 C.3   135  VAL135      0.0266
     76  CG1       59.2720  -17.6950   49.6590 C.3   135  VAL135      0.0020
     77  CG2       61.1750  -19.3250   49.5200 C.3   135  VAL135      0.0020
     78  N         61.7830  -14.8860   50.4300 N.am  136  ASN136     -0.1974
     79  CA        61.5000  -13.5210   50.8570 C.3   136  ASN136      0.1688
     80  C         61.8420  -12.5220   49.7520 C.2   136  ASN136      0.2292
     81  O         61.0070  -11.7220   49.3500 O.2   136  ASN136     -0.2864
     82  CB        62.2650  -13.1890   52.1420 C.3   136  ASN136      0.1181
     83  CG        61.6720  -13.8740   53.3690 C.2   136  ASN136      0.2629
     84  OD1       62.2700  -13.6320   54.5380 O.2   136  ASN136     -0.2716
     85  ND2       60.6800  -14.6050   53.2670 N.am  136  ASN136     -0.0877
     86  N         59.4640  -12.5680   46.6770 N.3   139  SER139     -0.1202
     87  CA        58.2340  -11.8490   46.9520 C.3   139  SER139      0.2020
     88  C         58.4260  -10.3400   46.9320 C.2   139  SER139      0.2618
     89  O         57.5020   -9.6030   46.5970 O.2   139  SER139     -0.2717
     90  CB        57.6340  -12.3080   48.2780 C.3   139  SER139      0.2103
     91  OG        56.4640  -11.5860   48.5840 O.3   139  SER139     -0.2182
     92  N         59.6120   -9.8720   47.2990 N.am  140  ARG140     -0.1979
     93  CA        59.8660   -8.4380   47.2780 C.3   140  ARG140      0.1597
     94  C         59.9960   -7.9900   45.8280 C.2   140  ARG140      0.2287
     95  O         59.6290   -6.8740   45.4980 O.2   140  ARG140     -0.2864
     96  CB        61.1180   -8.0800   48.0750 C.3   140  ARG140      0.0334
     97  CG        60.9760   -8.2120   49.5910 C.3   140  ARG140      0.0492
     98  CD        60.1220   -7.0860   50.1870 C.3   140  ARG140      0.2205
     99  NE        60.2480   -6.9650   51.6470 N.pl3 140  ARG140     -0.0865
    100  CZ        59.3060   -7.3120   52.5260 C.cat 140  ARG140      0.5346
    101  NH1       58.1490   -7.8160   52.1190 N.pl3 140  ARG140      0.1354
    102  NH2       59.5130   -7.1400   53.8220 N.pl3 140  ARG140      0.1354
    103  N         62.5400   -3.3740   51.7290 N.3   176  LYS176     -0.1231
    104  CA        62.3170   -3.4370   53.1790 C.3   176  LYS176      0.1693
    105  C         62.9250   -4.6710   53.8380 C.2   176  LYS176      0.2592
    106  O         62.5510   -5.8050   53.5150 O.2   176  LYS176     -0.2718
    107  CB        60.8330   -3.3450   53.5410 C.3   176  LYS176      0.0285
    108  CG        60.5970   -3.3040   55.0520 C.3   176  LYS176      0.0035
    109  CD        59.1310   -3.1210   55.3940 C.3   176  LYS176      0.0206
    110  CE        58.9180   -3.0240   56.8900 C.3   176  LYS176      0.1093
    111  NZ        57.4860   -2.7570   57.2110 N.3   176  LYS176     -0.1314
    112  N         63.8520   -4.4350   54.7670 N.am  177  GLY177     -0.1957
    113  CA        64.5080   -5.5250   55.4710 C.3   177  GLY177      0.1869
    114  C         65.8220   -5.9710   54.8500 C.2   177  GLY177      0.2309
    115  O         66.6880   -6.5210   55.5430 O.2   177  GLY177     -0.2863
@<TRIPOS>BOND
     1     4     3    2
     2     3     2    1
     3     1     2    1
     4     2     5    1
     5    31    32    2
     6    31    30    1
     7    29    30    1
     8     5     6    1
     9    30    33    1
    10     6     7   ar
    11     6     8   ar
    12     7     9   ar
    13    15    14    2
    14    95    94    2
    15    33    34    1
    16    94    93    1
    17    34    35    1
    18     8    10   ar
    19    14    13    1
    20    12    13    1
    21    89    88    2
    22     9    11   ar
    23    86    87    1
    24    13    16    1
    25    88    87    1
    26    88    92   am
    27    87    90    1
    28    24    23    2
    29    93    92    1
    30    93    96    1
    31    21    22    1
    32    10    11   ar
    33    52    50    1
    34    23    22    1
    35    35    36    1
    36    96    97    1
    37    90    91    1
    38    28    26    1
    39    22    25    1
    40    16    17    1
    41    74    73    2
    42    17    18    1
    43    25    26    1
    44    25    27    1
    45    50    49    1
    46    72    71    1
    47    72    73    1
    48    72    75    1
    49    51    49    1
    50    81    80    2
    51    73    78   am
    52    77    75    1
    53    97    98    1
    54    76    75    1
    55    80    79    1
    56    49    46    1
    57    18    19    1
    58    98    99    1
    59    78    79    1
    60    79    82    1
    61    19    20    1
    62    46    45    1
    63    46    47    1
    64    45    39   am
    65    43    42   ar
    66    99   100    2
    67    39    38    1
    68    39    40    2
    69    38    37    1
    70    38    41    1
    71   103   104    1
    72    47    48    2
    73    47    53   am
    74    56    55    2
    75   101   100    1
    76    82    83    1
    77    70    69    2
    78    53    54    1
    79   100   102    1
    80    42    41    1
    81    42    44   ar
    82    69    68    1
    83    55    54    1
    84    55    67   am
    85   104   107    1
    86   104   105    1
    87    68    67    1
    88    85    83   am
    89    54    57    1
    90    83    84    2
    91   106   105    2
    92   107   108    1
    93   105   112   am
    94   112   113    1
    95    57    58    1
    96   114   113    1
    97   114   115    2
    98   108   109    1
    99    63    65   ar
   100    63    60   ar
   101    58    60   ar
   102    58    59   ar
   103    65    66   ar
   104   109   110    1
   105    60    62   ar
   106    59    61   ar
   107    66    64   ar
   108    62    64   ar
   109    62    61   ar
   110   110   111    1
