@<TRIPOS>MOLECULE
tmp/1ck6A02.pdb
 89 89 0 0 0
SMALL
GASTEIGER

@<TRIPOS>ATOM
      1  N         21.6500   20.9380   34.8090 N.3    44  ARG44      -0.1245
      2  CA        20.2140   21.2110   34.7130 C.3    44  ARG44       0.1563
      3  C         19.6900   21.4340   36.1400 C.2    44  ARG44       0.2260
      4  O         18.9240   22.3700   36.3930 O.2    44  ARG44      -0.2867
      5  CB        19.5870   20.0070   34.0020 C.3    44  ARG44       0.0307
      6  CG        18.1550   20.1970   33.6580 C.3    44  ARG44       0.0489
      7  CD        17.6350   19.0700   32.7840 C.3    44  ARG44       0.2205
      8  NE        16.1910   19.0830   32.9730 N.pl3  44  ARG44      -0.0865
      9  CZ        15.4790   17.9570   33.1510 C.cat  44  ARG44       0.5346
     10  NH1       16.0340   16.7330   33.1410 N.pl3  44  ARG44       0.1354
     11  NH2       14.1910   18.0750   33.4710 N.pl3  44  ARG44       0.1354
     12  N         20.5080   25.1010   37.6960 N.3    47  PHE47      -0.1227
     13  CA        19.6210   26.0600   37.0780 C.3    47  PHE47       0.1736
     14  C         18.2580   25.8800   37.7320 C.2    47  PHE47       0.2595
     15  O         17.7370   26.8720   38.2510 O.2    47  PHE47      -0.2718
     16  CB        19.4990   25.8160   35.5420 C.3    47  PHE47       0.0547
     17  CG        18.4870   26.7200   34.8190 C.ar   47  PHE47      -0.0202
     18  CD1       18.3820   28.0880   35.1100 C.ar   47  PHE47      -0.0042
     19  CD2       17.6380   26.1700   33.8610 C.ar   47  PHE47      -0.0042
     20  CE1       17.4390   28.8920   34.4550 C.ar   47  PHE47      -0.0003
     21  CE2       16.7030   26.9610   33.2120 C.ar   47  PHE47      -0.0003
     22  CZ        16.5980   28.3200   33.5050 C.ar   47  PHE47      -0.0000
     23  N         17.6770   24.6790   37.8180 N.am   48  HIS48      -0.1975
     24  CA        16.3360   24.5370   38.3790 C.3    48  HIS48       0.1656
     25  C         16.2270   24.8860   39.8550 C.2    48  HIS48       0.2291
     26  O         15.1690   25.3140   40.3620 O.2    48  HIS48      -0.2864
     27  CB        15.8280   23.1010   38.1160 C.3    48  HIS48       0.0771
     28  CG        15.5220   22.8640   36.6370 C.ar   48  HIS48       0.0820
     29  ND1       14.8400   21.7590   36.1350 N.ar   48  HIS48      -0.2267
     30  CD2       15.8640   23.7300   35.5790 C.ar   48  HIS48       0.1154
     31  CE1       14.7590   21.9680   34.8010 C.ar   48  HIS48       0.1986
     32  NE2       15.3230   23.0920   34.4610 N.ar   48  HIS48      -0.2212
     33  N          6.6330   19.8010   36.1000 N.3    83  PRO83      -0.2102
     34  CA         6.9470   19.2200   34.7910 C.3    83  PRO83       0.1504
     35  C          8.3290   19.5640   34.2820 C.2    83  PRO83       0.2575
     36  O          8.8770   18.7740   33.5400 O.2    83  PRO83      -0.2718
     37  CB         5.7990   19.6910   33.8960 C.3    83  PRO83       0.0282
     38  CG         5.2670   20.9430   34.5710 C.3    83  PRO83       0.0208
     39  CD         5.4110   20.6300   36.0540 C.3    83  PRO83       0.0893
     40  N          8.9370   20.6930   34.6680 N.am   84  ALA84      -0.1980
     41  CA        10.2860   21.0330   34.2540 C.3    84  ALA84       0.1597
     42  C         11.3250   20.1190   34.8870 C.2    84  ALA84       0.2287
     43  O         12.4510   20.0660   34.4090 O.2    84  ALA84      -0.2864
     44  CB        10.6480   22.4420   34.6800 C.3    84  ALA84       0.0319
     45  N         10.3400   27.9640   36.3540 N.3   145  ILE145     -0.1231
     46  CA        11.3680   27.4360   35.4780 C.3   145  ILE145      0.1678
     47  C         10.9500   27.5880   34.0250 C.2   145  ILE145      0.2434
     48  O          9.8780   27.0860   33.6700 O.2   145  ILE145     -0.2733
     49  CB        11.6400   25.9270   35.7910 C.3   145  ILE145      0.0265
     50  CG1       12.0050   25.7700   37.2780 C.3   145  ILE145      0.0019
     51  CG2       12.7670   25.3820   34.8790 C.3   145  ILE145      0.0020
     52  CD1       12.0430   24.3010   37.7120 C.3   145  ILE145      0.0001
     53  N         11.7390   28.2480   33.1660 N.am  146  PRO146     -0.2718
     54  CA        11.4930   28.3730   31.7180 C.3   146  PRO146      0.1535
     55  C         11.3710   27.0110   31.0320 C.2   146  PRO146      0.2599
     56  O         12.1000   26.0400   31.3340 O.2   146  PRO146     -0.2715
     57  CB        12.6690   29.1660   31.1710 C.3   146  PRO146      0.0310
     58  CG        13.1310   29.9370   32.3570 C.3   146  PRO146      0.0237
     59  CD        12.9450   28.9880   33.5480 C.3   146  PRO146      0.0939
     60  N         10.4530   26.9680   30.0730 N.am  147  GLY147     -0.1941
     61  CA        10.1910   25.7650   29.3260 C.3   147  GLY147      0.1998
     62  C         10.5380   25.9160   27.8580 C.2   147  GLY147      0.2480
     63  O         10.4830   27.0290   27.3140 O.2   147  GLY147     -0.2729
     64  N         10.8320   24.8090   27.1620 N.am  148  PRO148     -0.2726
     65  CA        11.2100   24.7990   25.7440 C.3   148  PRO148      0.1402
     66  C         10.1180   25.2550   24.7790 C.2   148  PRO148      0.2269
     67  O         10.4200   25.6490   23.6550 O.2   148  PRO148     -0.2865
     68  CB        11.6710   23.3880   25.5070 C.3   148  PRO148      0.0296
     69  CG        10.7890   22.5660   26.4280 C.3   148  PRO148      0.0237
     70  CD        10.7390   23.4450   27.6790 C.3   148  PRO148      0.0939
     71  N         12.1400   14.8610   25.9680 N.3   184  LEU184     -0.1245
     72  CA        11.3580   15.5970   24.9910 C.3   184  LEU184      0.1561
     73  C         10.9680   14.6470   23.8500 C.2   184  LEU184      0.2260
     74  O          9.8640   14.6840   23.2990 O.2   184  LEU184     -0.2867
     75  CB        12.2410   16.7580   24.5660 C.3   184  LEU184      0.0270
     76  CG        12.0800   18.1700   25.1530 C.3   184  LEU184      0.0019
     77  CD1       11.4490   18.1740   26.5370 C.3   184  LEU184      0.0001
     78  CD2       13.4400   18.8210   25.0500 C.3   184  LEU184      0.0001
     79  N          8.0330   16.8350   22.1470 N.3   222  PHE222     -0.1241
     80  CA         7.5930   18.0800   22.7220 C.3   222  PHE222      0.1605
     81  C          8.6440   19.1800   22.4700 C.2   222  PHE222      0.2264
     82  O          9.8460   19.0230   22.7410 O.2   222  PHE222     -0.2867
     83  CB         7.3450   17.8630   24.2260 C.3   222  PHE222      0.0534
     84  CG         6.8020   19.1250   24.8600 C.ar  222  PHE222     -0.0203
     85  CD1        5.5450   19.5970   24.4800 C.ar  222  PHE222     -0.0042
     86  CD2        7.6030   19.8670   25.7360 C.ar  222  PHE222     -0.0042
     87  CE1        5.0990   20.8280   24.9700 C.ar  222  PHE222     -0.0003
     88  CE2        7.1420   21.0950   26.2170 C.ar  222  PHE222     -0.0003
     89  CZ         5.8950   21.5800   25.8350 C.ar  222  PHE222     -0.0000
@<TRIPOS>BOND
     1    79    80    1
     2    81    80    1
     3    81    82    2
     4    80    83    1
     5    74    73    2
     6    67    66    2
     7    73    72    1
     8    83    84    1
     9    85    84   ar
    10    85    87   ar
    11    75    72    1
    12    75    76    1
    13    66    65    1
    14    84    86   ar
    15    87    89   ar
    16    72    71    1
    17    78    76    1
    18    76    77    1
    19    68    65    1
    20    68    69    1
    21    86    88   ar
    22    65    64    1
    23    89    88   ar
    24    69    70    1
    25    64    70    1
    26    64    62   am
    27    63    62    2
    28    62    61    1
    29    61    60    1
    30    60    55   am
    31    55    56    2
    32    55    54    1
    33    57    54    1
    34    57    58    1
    35    54    53    1
    36    58    59    1
    37     7     8    1
    38     7     6    1
    39     8     9    2
    40    10     9    1
    41     9    11    1
    42    53    59    1
    43    53    47   am
    44    21    22   ar
    45    21    19   ar
    46    22    20   ar
    47    36    35    2
    48     6     5    1
    49    48    47    2
    50    19    17   ar
    51    37    38    1
    52    37    34    1
    53     5     2    1
    54    47    46    1
    55    41    40    1
    56    41    44    1
    57    41    42    1
    58    35    40   am
    59    35    34    1
    60    43    42    2
    61    20    18   ar
    62    32    31   ar
    63    32    30   ar
    64    38    39    1
    65     2     1    1
    66     2     3    1
    67    34    33    1
    68    31    29   ar
    69    17    18   ar
    70    17    16    1
    71    51    49    1
    72    46    49    1
    73    46    45    1
    74    16    13    1
    75    30    28   ar
    76    49    50    1
    77    39    33    1
    78    29    28   ar
    79     3     4    2
    80    28    27    1
    81    13    12    1
    82    13    14    1
    83    50    52    1
    84    14    23   am
    85    14    15    2
    86    23    24    1
    87    27    24    1
    88    24    25    1
    89    25    26    2
