@<TRIPOS>MOLECULE
tmp/1ckaA00.pdb
 142 142 0 0 0
SMALL
GASTEIGER

@<TRIPOS>ATOM
      1  N        114.1680  138.4840   19.9380 N.3     8  PHE8       -0.1227
      2  CA       114.9250  139.4530   19.1400 C.3     8  PHE8        0.1736
      3  C        114.0970  139.9600   17.9680 C.2     8  PHE8        0.2595
      4  O        113.0780  139.3640   17.6090 O.2     8  PHE8       -0.2718
      5  CB       116.1640  138.7640   18.5510 C.3     8  PHE8        0.0547
      6  CG       117.1910  138.4010   19.5680 C.ar    8  PHE8       -0.0202
      7  CD1      118.1950  139.3100   19.9140 C.ar    8  PHE8       -0.0042
      8  CD2      117.1560  137.1670   20.1940 C.ar    8  PHE8       -0.0042
      9  CE1      119.1550  138.9820   20.8770 C.ar    8  PHE8       -0.0003
     10  CE2      118.1140  136.8270   21.1640 C.ar    8  PHE8       -0.0003
     11  CZ       119.1100  137.7360   21.5030 C.ar    8  PHE8       -0.0000
     12  N        114.5210  141.0750   17.3800 N.am    9  ASP9       -0.1960
     13  CA       113.8210  141.6010   16.2130 C.3     9  ASP9        0.1840
     14  C        114.2270  140.6710   15.0730 C.2     9  ASP9        0.2622
     15  O        115.3220  140.0860   15.0930 O.2     9  ASP9       -0.2715
     16  CB       114.3130  143.0130   15.8250 C.3     9  ASP9        0.1450
     17  CG       114.0060  144.0950   16.8580 C.2     9  ASP9        0.3671
     18  OD1      113.1790  143.8990   17.7820 O.co2   9  ASP9       -0.2456
     19  OD2      114.6180  145.1800   16.7010 O.co2   9  ASP9       -0.2456
     20  N        113.3770  140.5770   14.0600 N.am   10  PHE10      -0.1974
     21  CA       113.6810  139.7790   12.8880 C.3    10  PHE10       0.1639
     22  C        113.0440  140.4420   11.6770 C.2    10  PHE10       0.2290
     23  O        111.8750  140.8310   11.7360 O.2    10  PHE10      -0.2864
     24  CB       113.1310  138.3550   13.0550 C.3    10  PHE10       0.0560
     25  CG       113.1900  137.5210   11.8040 C.ar   10  PHE10      -0.0200
     26  CD1      114.4160  137.0800   11.2870 C.ar   10  PHE10      -0.0042
     27  CD2      112.0020  137.1550   11.1580 C.ar   10  PHE10      -0.0042
     28  CE1      114.4460  136.2750   10.1360 C.ar   10  PHE10      -0.0003
     29  CE2      112.0220  136.3600   10.0250 C.ar   10  PHE10      -0.0003
     30  CZ       113.2350  135.9140    9.5110 C.ar   10  PHE10      -0.0000
     31  N        114.2460  139.3370    8.1370 N.3    12  GLY12      -0.1210
     32  CA       114.2940  138.3040    7.1050 C.3    12  GLY12       0.1956
     33  C        114.6980  138.7860    5.7180 C.2    12  GLY12       0.2612
     34  O        114.4750  139.9530    5.3720 O.2    12  GLY12      -0.2717
     35  N        115.3860  137.9260    4.9620 N.am   13  ASN13      -0.1960
     36  CA       115.7840  138.2950    3.6170 C.3    13  ASN13       0.1819
     37  C        114.8790  137.7120    2.5380 C.2    13  ASN13       0.2621
     38  O        114.9800  138.0950    1.3690 O.2    13  ASN13      -0.2715
     39  CB       117.2520  137.9560    3.3440 C.3    13  ASN13       0.1195
     40  CG       118.2010  138.8650    4.1080 C.2    13  ASN13       0.2630
     41  OD1      118.4180  140.0300    3.7310 O.2    13  ASN13      -0.2716
     42  ND2      118.7360  138.3610    5.2140 N.am   13  ASN13      -0.0877
     43  N        113.9900  136.8020    2.9260 N.am   14  ASP14      -0.1971
     44  CA       113.0660  136.1850    1.9740 C.3    14  ASP14       0.1709
     45  C        111.6610  136.7730    2.1080 C.2    14  ASP14       0.2293
     46  O        111.1900  137.0680    3.2180 O.2    14  ASP14      -0.2864
     47  CB       113.0060  134.6640    2.1740 C.3    14  ASP14       0.1436
     48  CG       114.3530  133.9920    1.9560 C.2    14  ASP14       0.3671
     49  OD1      115.1950  134.5720    1.2430 O.co2  14  ASP14      -0.2456
     50  OD2      114.5760  132.8920    2.5050 O.co2  14  ASP14      -0.2456
     51  N        108.8700  135.3360    2.0260 N.3    16  GLU16      -0.1231
     52  CA       107.9800  134.4760    2.8140 C.3    16  GLU16       0.1699
     53  C        108.1020  134.7050    4.3260 C.2    16  GLU16       0.2592
     54  O        107.2940  134.1670    5.0960 O.2    16  GLU16      -0.2718
     55  CB       108.2720  132.9910    2.5340 C.3    16  GLU16       0.0402
     56  CG       109.6010  132.5090    3.0920 C.3    16  GLU16       0.1161
     57  CD       109.7740  130.9790    3.0190 C.2    16  GLU16       0.3649
     58  OE1      108.8730  130.2720    2.5250 O.co2  16  GLU16      -0.2457
     59  OE2      110.8220  130.4740    3.4660 O.co2  16  GLU16      -0.2457
     60  N        109.1370  135.4400    4.7380 N.am   17  ASP17      -0.1974
     61  CA       109.4130  135.6880    6.1480 C.3    17  ASP17       0.1709
     62  C        108.4600  136.6650    6.8050 C.2    17  ASP17       0.2293
     63  O        108.0430  137.6350    6.1860 O.2    17  ASP17      -0.2864
     64  CB       110.8490  136.2190    6.3450 C.3    17  ASP17       0.1436
     65  CG       111.9220  135.2440    5.8810 C.2    17  ASP17       0.3671
     66  OD1      111.6210  134.0590    5.6880 O.co2  17  ASP17      -0.2456
     67  OD2      113.0860  135.6750    5.7340 O.co2  17  ASP17      -0.2456
     68  N        109.3170  122.5670    8.9680 N.3    33  GLU33      -0.1231
     69  CA       110.7300  122.2520    9.2030 C.3    33  GLU33       0.1699
     70  C        110.9660  122.3560   10.7020 C.2    33  GLU33       0.2592
     71  O        110.2240  123.0360   11.4100 O.2    33  GLU33      -0.2718
     72  CB       111.6450  123.2950    8.5590 C.3    33  GLU33       0.0402
     73  CG       111.6260  123.3820    7.0630 C.3    33  GLU33       0.1161
     74  CD       112.5190  124.5050    6.5800 C.2    33  GLU33       0.3649
     75  OE1      113.6410  124.6650    7.1290 O.co2  33  GLU33      -0.2457
     76  OE2      112.0880  125.2290    5.6650 O.co2  33  GLU33      -0.2457
     77  N        112.0810  121.7970   11.1620 N.am   34  GLU34      -0.1966
     78  CA       112.4040  121.8520   12.5780 C.3    34  GLU34       0.1733
     79  C        112.6710  123.2740   13.0910 C.2    34  GLU34       0.2616
     80  O        112.1670  123.6450   14.1690 O.2    34  GLU34      -0.2715
     81  CB       113.6190  120.9710   12.8710 C.3    34  GLU34       0.0429
     82  CG       113.3620  119.4900   12.6060 C.3    34  GLU34       0.1163
     83  CD       114.6400  118.6830   12.5230 C.2    34  GLU34       0.3649
     84  OE1      115.3530  118.5820   13.5460 O.co2  34  GLU34      -0.2457
     85  OE2      114.9310  118.1490   11.4290 O.co2  34  GLU34      -0.2457
     86  N        113.4120  124.0770   12.3090 N.am   35  GLN35      -0.1963
     87  CA       113.8150  125.4160   12.7390 C.3    35  GLN35       0.1733
     88  C        113.1450  126.6440   12.1310 C.2    35  GLN35       0.2616
     89  O        113.4800  127.7650   12.5080 O.2    35  GLN35      -0.2715
     90  CB       115.3350  125.5690   12.6000 C.3    35  GLN35       0.0408
     91  CG       116.1470  124.4480   13.2190 C.3    35  GLN35       0.0908
     92  CD       115.9690  124.3140   14.7160 C.2    35  GLN35       0.2608
     93  OE1      116.0190  123.1940   15.2520 O.2    35  GLN35      -0.2717
     94  NE2      115.7810  125.4420   15.4110 N.am   35  GLN35      -0.0878
     95  N        112.2190  126.4380   11.1960 N.am   36  TRP36      -0.1974
     96  CA       111.4920  127.5140   10.5420 C.3    36  TRP36       0.1640
     97  C        110.0150  127.1130   10.5890 C.2    36  TRP36       0.2290
     98  O        109.6190  126.0690   10.0470 O.2    36  TRP36      -0.2864
     99  CB       111.9540  127.6660    9.0970 C.3    36  TRP36       0.0576
    100  CG       113.2670  128.3770    8.9570 C.ar   36  TRP36       0.0006
    101  CD1      114.5260  127.8100    8.8390 C.ar   36  TRP36       0.0946
    102  CD2      113.4630  129.7950    8.9200 C.ar   36  TRP36       0.0152
    103  NE1      115.4830  128.8030    8.7300 N.ar   36  TRP36      -0.2442
    104  CE2      114.8600  130.0330    8.7730 C.ar   36  TRP36       0.0810
    105  CE3      112.5910  130.8980    8.9830 C.ar   36  TRP36       0.0012
    106  CZ2      115.4030  131.3340    8.6880 C.ar   36  TRP36       0.0191
    107  CZ3      113.1430  132.2080    8.8980 C.ar   36  TRP36       0.0001
    108  CH2      114.5320  132.4030    8.7480 C.ar   36  TRP36       0.0015
    109  N        107.0750  132.9670    7.6700 N.3    48  MET48      -0.1245
    110  CA       108.0470  132.0700    8.2900 C.3    48  MET48       0.1570
    111  C        108.8850  132.7890    9.3280 C.2    48  MET48       0.2261
    112  O        109.2530  133.9450    9.1340 O.2    48  MET48      -0.2867
    113  CB       108.9700  131.4840    7.2220 C.3    48  MET48       0.0387
    114  CG       108.2150  130.7200    6.1500 C.3    48  MET48       0.0595
    115  SD       107.1240  129.4300    6.8360 S.3    48  MET48      -0.1393
    116  CE       108.3850  128.3510    7.5230 C.3    48  MET48       0.0692
    117  N        112.2030  132.1690   12.3730 N.3    50  PRO50      -0.2116
    118  CA       113.2910  131.3040   12.8540 C.3    50  PRO50       0.1372
    119  C        113.0850  130.9330   14.3250 C.2    50  PRO50       0.2244
    120  O        113.0480  131.7970   15.2090 O.2    50  PRO50      -0.2868
    121  CB       114.5300  132.1590   12.6320 C.3    50  PRO50       0.0268
    122  CG       114.0430  133.5420   12.8600 C.3    50  PRO50       0.0207
    123  CD       112.6360  133.5680   12.2410 C.3    50  PRO50       0.0892
    124  N        115.0720  129.8160   16.7000 N.3    52  PRO52      -0.2102
    125  CA       116.0120  130.3390   17.7010 C.3    52  PRO52       0.1504
    126  C        115.7110  131.7550   18.1820 C.2    52  PRO52       0.2575
    127  O        116.2400  132.1790   19.2150 O.2    52  PRO52      -0.2718
    128  CB       117.3530  130.3230   16.9600 C.3    52  PRO52       0.0282
    129  CG       117.2320  129.1100   16.1020 C.3    52  PRO52       0.0208
    130  CD       115.8040  129.2270   15.5590 C.3    52  PRO52       0.0893
    131  N        114.9230  132.5140   17.4160 N.am   53  TYR53      -0.1977
    132  CA       114.6180  133.8920   17.7840 C.3    53  TYR53       0.1639
    133  C        113.4110  134.0280   18.7160 C.2    53  TYR53       0.2290
    134  O        113.0400  135.1430   19.0880 O.2    53  TYR53      -0.2864
    135  CB       114.3460  134.7440   16.5440 C.3    53  TYR53       0.0560
    136  CG       115.5520  135.2030   15.7570 C.ar   53  TYR53      -0.0198
    137  CD1      116.6270  134.3420   15.5090 C.ar   53  TYR53      -0.0009
    138  CD2      115.6030  136.5100   15.2450 C.ar   53  TYR53      -0.0009
    139  CE1      117.7460  134.7820   14.7600 C.ar   53  TYR53       0.0417
    140  CE2      116.7030  136.9550   14.5020 C.ar   53  TYR53       0.0417
    141  CZ       117.7640  136.0830   14.2650 C.ar   53  TYR53       0.1957
    142  OH       118.8550  136.5060   13.5340 O.3    53  TYR53      -0.2866
@<TRIPOS>BOND
     1    49    48   ar
     2    38    37    2
     3    48    47    1
     4    48    50   ar
     5    44    45    1
     6    44    47    1
     7    44    43    1
     8    51    52    1
     9    45    46    2
    10    58    57   ar
    11    55    52    1
    12    55    56    1
    13    37    43   am
    14    37    36    1
    15    52    53    1
    16    57    56    1
    17    57    59   ar
    18    39    36    1
    19    39    40    1
    20    36    35    1
    21    41    40    2
    22    40    42   am
    23    53    60   am
    24    53    54    2
    25    60    61    1
    26    35    33   am
    27    34    33    2
    28    76    74   ar
    29    66    65   ar
    30    33    32    1
    31    67    65   ar
    32    65    64    1
    33    61    64    1
    34    61    62    1
    35   114   115    1
    36   114   113    1
    37    63    62    2
    38    74    73    1
    39    74    75   ar
    40   115   116    1
    41    73    72    1
    42    32    31    1
    43   113   110    1
    44   109   110    1
    45   110   111    1
    46    72    69    1
    47   106   108   ar
    48   106   104   ar
    49   103   104   ar
    50   103   101   ar
    51   108   107   ar
    52   104   102   ar
    53   101   100   ar
    54   107   105   ar
    55   102   100   ar
    56   102   105   ar
    57   100    99    1
    58    68    69    1
    59    99    96    1
    60   112   111    2
    61    69    70    1
    62    30    29   ar
    63    30    28   ar
    64    29    27   ar
    65    98    97    2
    66    28    26   ar
    67    96    97    1
    68    96    95    1
    69    70    77   am
    70    70    71    2
    71    27    25   ar
    72    77    78    1
    73    95    88   am
    74    26    25   ar
    75    85    83   ar
    76    22    23    2
    77    22    21    1
    78    25    24    1
    79    88    89    2
    80    88    87    1
    81   123   117    1
    82   123   122    1
    83    86    87    1
    84    86    79   am
    85   117   118    1
    86    83    82    1
    87    83    84   ar
    88    78    81    1
    89    78    79    1
    90    90    87    1
    91    90    91    1
    92    82    81    1
    93   121   118    1
    94   121   122    1
    95   118   119    1
    96    21    24    1
    97    21    20    1
    98    79    80    2
    99    91    92    1
   100   142   141    1
   101    20    14   am
   102   141   140   ar
   103   141   139   ar
   104   119   120    2
   105   140   138   ar
   106    92    93    2
   107    92    94   am
   108   139   137   ar
   109    14    15    2
   110    14    13    1
   111   138   136   ar
   112   137   136   ar
   113   130   129    1
   114   130   124    1
   115   136   135    1
   116    16    13    1
   117    16    17    1
   118   129   128    1
   119    13    12    1
   120   135   132    1
   121   124   125    1
   122    19    17   ar
   123    17    18   ar
   124   128   125    1
   125    12     3   am
   126   131   132    1
   127   131   126   am
   128     4     3    2
   129   125   126    1
   130   132   133    1
   131     3     2    1
   132   126   127    2
   133     5     2    1
   134     5     6    1
   135   133   134    2
   136     2     1    1
   137     6     7   ar
   138     6     8   ar
   139     7     9   ar
   140     8    10   ar
   141     9    11   ar
   142    10    11   ar
