@<TRIPOS>MOLECULE
tmp/1ckbA00.pdb
 129 128 0 0 0
SMALL
GASTEIGER

@<TRIPOS>ATOM
      1  N        114.2580  138.4110   20.0330 N.3     8  PHE8       -0.1227
      2  CA       115.0330  139.4030   19.2750 C.3     8  PHE8        0.1736
      3  C        114.1900  139.8770   18.1090 C.2     8  PHE8        0.2595
      4  O        113.2150  139.2290   17.7590 O.2     8  PHE8       -0.2718
      5  CB       116.3060  138.7480   18.6670 C.3     8  PHE8        0.0547
      6  CG       117.1740  138.0350   19.6660 C.ar    8  PHE8       -0.0202
      7  CD1      116.9560  136.6990   19.9620 C.ar    8  PHE8       -0.0042
      8  CD2      118.1920  138.7070   20.3210 C.ar    8  PHE8       -0.0042
      9  CE1      117.7350  136.0440   20.9110 C.ar    8  PHE8       -0.0003
     10  CE2      118.9770  138.0570   21.2690 C.ar    8  PHE8       -0.0003
     11  CZ       118.7420  136.7270   21.5560 C.ar    8  PHE8       -0.0000
     12  N        114.5630  141.0060   17.5140 N.am    9  ASP9       -0.1960
     13  CA       113.8730  141.5240   16.3230 C.3     9  ASP9        0.1840
     14  C        114.2970  140.6140   15.1650 C.2     9  ASP9        0.2622
     15  O        115.4140  140.0970   15.1580 O.2     9  ASP9       -0.2715
     16  CB       114.3560  142.9320   15.9360 C.3     9  ASP9        0.1450
     17  CG       114.0840  143.9900   16.9930 C.2     9  ASP9        0.3671
     18  OD1      113.1620  143.8550   17.8140 O.co2   9  ASP9       -0.2456
     19  OD2      114.7920  145.0070   16.9620 O.co2   9  ASP9       -0.2456
     20  N        113.4440  140.4640   14.1650 N.am   10  PHE10      -0.1974
     21  CA       113.7840  139.6520   13.0080 C.3    10  PHE10       0.1639
     22  C        113.2640  140.4860   11.8550 C.2    10  PHE10       0.2290
     23  O        112.0810  140.8270   11.7950 O.2    10  PHE10      -0.2864
     24  CB       113.1110  138.2560   13.0620 C.3    10  PHE10       0.0560
     25  CG       113.2540  137.4440   11.7870 C.ar   10  PHE10      -0.0200
     26  CD1      114.5170  137.0930   11.2950 C.ar   10  PHE10      -0.0042
     27  CD2      112.1260  137.0500   11.0660 C.ar   10  PHE10      -0.0042
     28  CE1      114.6450  136.3570   10.0960 C.ar   10  PHE10      -0.0003
     29  CE2      112.2420  136.3090    9.8620 C.ar   10  PHE10      -0.0003
     30  CZ       113.5110  135.9730    9.3850 C.ar   10  PHE10      -0.0000
     31  N        114.2430  137.8940    5.6410 N.3    13  ASN13      -0.1225
     32  CA       115.2190  137.8370    4.5550 C.3    13  ASN13       0.1785
     33  C        114.5180  137.5070    3.2520 C.2    13  ASN13       0.2597
     34  O        114.6800  138.2000    2.2530 O.2    13  ASN13      -0.2718
     35  CB       116.2920  136.7880    4.8680 C.3    13  ASN13       0.1169
     36  CG       117.0150  137.0660    6.1880 C.2    13  ASN13       0.2627
     37  OD1      117.5490  138.1470    6.3940 O.2    13  ASN13      -0.2716
     38  ND2      116.9930  136.1100    7.0990 N.am   13  ASN13      -0.0877
     39  N        113.7440  136.4340    3.2670 N.am   14  ASP14      -0.1974
     40  CA       112.9830  136.0300    2.1070 C.3    14  ASP14       0.1709
     41  C        111.6030  136.6370    2.1980 C.2    14  ASP14       0.2293
     42  O        111.1440  136.9850    3.2790 O.2    14  ASP14      -0.2864
     43  CB       112.8970  134.5100    2.0290 C.3    14  ASP14       0.1436
     44  CG       114.1770  133.8920    1.4970 C.2    14  ASP14       0.3671
     45  OD1      115.1130  134.6530    1.1340 O.co2  14  ASP14      -0.2456
     46  OD2      114.2320  132.6430    1.4140 O.co2  14  ASP14      -0.2456
     47  N        108.8250  135.2500    2.0140 N.3    16  GLU16      -0.1231
     48  CA       107.9070  134.4010    2.7920 C.3    16  GLU16       0.1699
     49  C        108.0530  134.6090    4.3100 C.2    16  GLU16       0.2592
     50  O        107.2630  134.0860    5.0890 O.2    16  GLU16      -0.2718
     51  CB       108.1690  132.9140    2.5110 C.3    16  GLU16       0.0402
     52  CG       109.5080  132.4220    3.0710 C.3    16  GLU16       0.1161
     53  CD       109.7690  130.9400    2.8220 C.2    16  GLU16       0.3649
     54  OE1      108.8860  130.1160    3.1530 O.co2  16  GLU16      -0.2457
     55  OE2      110.8540  130.5980    2.2900 O.co2  16  GLU16      -0.2457
     56  N        109.1010  135.2970    4.7320 N.am   17  ASP17      -0.1974
     57  CA       109.3420  135.5140    6.1500 C.3    17  ASP17       0.1709
     58  C        108.4040  136.4950    6.8260 C.2    17  ASP17       0.2293
     59  O        107.9610  137.4700    6.2130 O.2    17  ASP17      -0.2864
     60  CB       110.7840  136.0010    6.3530 C.3    17  ASP17       0.1436
     61  CG       111.8070  134.9480    5.9930 C.2    17  ASP17       0.3671
     62  OD1      111.3760  133.8090    5.7850 O.co2  17  ASP17      -0.2456
     63  OD2      113.0160  135.2460    5.9240 O.co2  17  ASP17      -0.2456
     64  N        109.3770  122.6910    8.9460 N.3    33  GLU33      -0.1245
     65  CA       110.7880  122.4330    9.1630 C.3    33  GLU33       0.1567
     66  C        111.0250  122.4880   10.6590 C.2    33  GLU33       0.2260
     67  O        110.2170  123.0340   11.3980 O.2    33  GLU33      -0.2867
     68  CB       111.5820  123.5480    8.5370 C.3    33  GLU33       0.0388
     69  CG       112.6480  123.0920    7.6410 C.3    33  GLU33       0.1160
     70  CD       113.4470  124.2570    7.1710 C.2    33  GLU33       0.3649
     71  OE1      112.9280  124.9950    6.3120 O.co2  33  GLU33      -0.2457
     72  OE2      114.5620  124.4590    7.6890 O.co2  33  GLU33      -0.2457
     73  N        113.5650  124.1940   12.3120 N.3    35  GLN35      -0.1231
     74  CA       113.9680  125.5520   12.7090 C.3    35  GLN35       0.1698
     75  C        113.2320  126.7130   12.0280 C.2    35  GLN35       0.2592
     76  O        113.5880  127.8740   12.2530 O.2    35  GLN35      -0.2718
     77  CB       115.4840  125.7770   12.5200 C.3    35  GLN35       0.0381
     78  CG       116.4050  124.9350   13.4100 C.3    35  GLN35       0.0905
     79  CD       116.0600  124.9740   14.8950 C.2    35  GLN35       0.2608
     80  OE1      115.8210  123.9240   15.4950 O.2    35  GLN35      -0.2717
     81  NE2      116.0490  126.1650   15.5000 N.am   35  GLN35      -0.0878
     82  N        112.2490  126.4090   11.1770 N.am   36  TRP36      -0.1976
     83  CA       111.4590  127.4300   10.4810 C.3    36  TRP36       0.1640
     84  C        109.9920  127.0240   10.5710 C.2    36  TRP36       0.2290
     85  O        109.5900  125.9660   10.0820 O.2    36  TRP36      -0.2864
     86  CB       111.8840  127.5840    9.0100 C.3    36  TRP36       0.0576
     87  CG       113.2300  128.3140    8.8070 C.ar   36  TRP36       0.0006
     88  CD1      114.4660  127.7370    8.6710 C.ar   36  TRP36       0.0946
     89  CD2      113.4440  129.7410    8.7310 C.ar   36  TRP36       0.0152
     90  NE1      115.4350  128.7120    8.5210 N.ar   36  TRP36      -0.2442
     91  CE2      114.8400  129.9460    8.5470 C.ar   36  TRP36       0.0810
     92  CE3      112.5920  130.8630    8.7930 C.ar   36  TRP36       0.0012
     93  CZ2      115.4040  131.2240    8.4230 C.ar   36  TRP36       0.0191
     94  CZ3      113.1550  132.1410    8.6690 C.ar   36  TRP36       0.0001
     95  CH2      114.5500  132.3070    8.4840 C.ar   36  TRP36       0.0015
     96  N        106.9890  132.8940    7.6630 N.3    48  MET48      -0.1245
     97  CA       107.9250  131.9620    8.2830 C.3    48  MET48       0.1570
     98  C        108.7510  132.6920    9.3110 C.2    48  MET48       0.2261
     99  O        109.1140  133.8570    9.1080 O.2    48  MET48      -0.2867
    100  CB       108.8830  131.4050    7.2300 C.3    48  MET48       0.0387
    101  CG       108.1790  130.7150    6.1200 C.3    48  MET48       0.0595
    102  SD       107.4370  129.2520    6.8500 S.3    48  MET48      -0.1393
    103  CE       108.9100  128.1910    6.8480 C.3    48  MET48       0.0692
    104  N        112.1580  132.1490   12.2420 N.3    50  PRO50      -0.2116
    105  CA       113.2770  131.3310   12.7150 C.3    50  PRO50       0.1372
    106  C        113.0970  130.9790   14.2110 C.2    50  PRO50       0.2244
    107  O        113.0080  131.8550   15.0860 O.2    50  PRO50      -0.2868
    108  CB       114.4940  132.2360   12.4600 C.3    50  PRO50       0.0268
    109  CG       113.9460  133.6100   12.7240 C.3    50  PRO50       0.0207
    110  CD       112.5320  133.5740   12.1230 C.3    50  PRO50       0.0892
    111  N        115.1340  129.8710   16.5600 N.3    52  PRO52      -0.2102
    112  CA       116.0860  130.3840   17.5610 C.3    52  PRO52       0.1504
    113  C        115.7540  131.8010   18.1030 C.2    52  PRO52       0.2575
    114  O        116.2110  132.1820   19.1730 O.2    52  PRO52      -0.2718
    115  CB       117.3950  130.3910   16.7820 C.3    52  PRO52       0.0282
    116  CG       117.2290  129.1630   15.8620 C.3    52  PRO52       0.0208
    117  CD       115.8370  129.4080   15.3440 C.3    52  PRO52       0.0893
    118  N        114.9280  132.5540   17.3730 N.am   53  TYR53      -0.1977
    119  CA       114.5680  133.9200   17.7510 C.3    53  TYR53       0.1639
    120  C        113.3420  134.0140   18.6520 C.2    53  TYR53       0.2290
    121  O        112.9000  135.1220   18.9970 O.2    53  TYR53      -0.2864
    122  CB       114.2990  134.7490   16.4930 C.3    53  TYR53       0.0560
    123  CG       115.5330  135.2320   15.7910 C.ar   53  TYR53      -0.0198
    124  CD1      116.4970  134.3260   15.2920 C.ar   53  TYR53      -0.0009
    125  CD2      115.7880  136.6070   15.6800 C.ar   53  TYR53      -0.0009
    126  CE1      117.6870  134.8030   14.7030 C.ar   53  TYR53       0.0417
    127  CE2      116.9630  137.0910   15.1100 C.ar   53  TYR53       0.0417
    128  CZ       117.9040  136.1880   14.6350 C.ar   53  TYR53       0.1957
    129  OH       119.0710  136.6830   14.1370 O.3    53  TYR53      -0.2866
@<TRIPOS>BOND
     1    45    44   ar
     2    46    44   ar
     3    44    43    1
     4    47    48    1
     5    43    40    1
     6    40    41    1
     7    40    39    1
     8    41    42    2
     9    34    33    2
    10    55    53   ar
    11    51    48    1
    12    51    52    1
    13    48    49    1
    14    53    52    1
    15    53    54   ar
    16    33    39   am
    17    33    32    1
    18    49    56   am
    19    49    50    2
    20    32    35    1
    21    32    31    1
    22    56    57    1
    23    35    36    1
    24    62    61   ar
    25    63    61   ar
    26    61    60    1
    27   101   102    1
    28   101   100    1
    29    57    60    1
    30    57    58    1
    31    36    37    2
    32    36    38   am
    33    59    58    2
    34    71    70   ar
    35   103   102    1
    36    70    69    1
    37    70    72   ar
    38   100    97    1
    39    69    68    1
    40    96    97    1
    41    97    98    1
    42    93    95   ar
    43    93    91   ar
    44    95    94   ar
    45    90    91   ar
    46    90    88   ar
    47    68    65    1
    48    91    89   ar
    49    94    92   ar
    50    88    87   ar
    51    89    92   ar
    52    89    87   ar
    53    87    86    1
    54    64    65    1
    55    86    83    1
    56    99    98    2
    57    65    66    1
    58    30    29   ar
    59    30    28   ar
    60    29    27   ar
    61    85    84    2
    62    28    26   ar
    63    83    84    1
    64    83    82    1
    65    66    67    2
    66    27    25   ar
    67    82    75   am
    68    26    25   ar
    69    25    24    1
    70    23    22    2
    71    22    21    1
    72    75    76    2
    73    75    74    1
    74   110   104    1
    75   110   109    1
    76   104   105    1
    77    73    74    1
    78   108   105    1
    79   108   109    1
    80    77    74    1
    81    77    78    1
    82   105   106    1
    83    21    24    1
    84    21    20    1
    85    78    79    1
    86   129   128    1
    87    20    14   am
    88   106   107    2
    89   128   126   ar
    90   128   127   ar
    91   126   124   ar
    92    79    80    2
    93    79    81   am
    94   127   125   ar
    95    15    14    2
    96    14    13    1
    97   124   123   ar
    98   117   116    1
    99   117   111    1
   100   125   123   ar
   101   123   122    1
   102   116   115    1
   103    16    13    1
   104    16    17    1
   105    13    12    1
   106   122   119    1
   107   111   112    1
   108   115   112    1
   109    19    17   ar
   110    17    18   ar
   111   118   119    1
   112   118   113   am
   113    12     3   am
   114   112   113    1
   115   119   120    1
   116     4     3    2
   117   113   114    2
   118     3     2    1
   119   120   121    2
   120     5     2    1
   121     5     6    1
   122     2     1    1
   123     6     7   ar
   124     6     8   ar
   125     7     9   ar
   126     8    10   ar
   127     9    11   ar
   128    10    11   ar
