@<TRIPOS>MOLECULE
tmp/1ckmA00.pdb
 165 156 0 0 0
SMALL
GASTEIGER

@<TRIPOS>ATOM
      1  N         31.9470   53.7800   18.8300 N.3    49  PRO49      -0.2102
      2  CA        32.6370   54.1710   20.0420 C.3    49  PRO49       0.1504
      3  C         32.5230   53.1260   21.1290 C.2    49  PRO49       0.2576
      4  O         31.4800   52.4950   21.3630 O.2    49  PRO49      -0.2718
      5  CB        31.9230   55.4440   20.4530 C.3    49  PRO49       0.0282
      6  CG        30.4770   55.1080   20.1430 C.3    49  PRO49       0.0208
      7  CD        30.6520   54.4650   18.7770 C.3    49  PRO49       0.0893
      8  N         33.5950   53.0280   21.8830 N.am   50  ASN50      -0.1961
      9  CA        33.6180   52.2370   23.0910 C.3    50  ASN50       0.1804
     10  C         33.5890   53.1970   24.2540 C.2    50  ASN50       0.2463
     11  O         34.4640   54.0660   24.3390 O.2    50  ASN50      -0.2730
     12  CB        34.8800   51.3840   23.1410 C.3    50  ASN50       0.1195
     13  CG        34.9410   50.4410   21.9430 C.2    50  ASN50       0.2630
     14  OD1       35.9840   50.2910   21.3250 O.2    50  ASN50      -0.2716
     15  ND2       33.8630   49.7800   21.5280 N.am   50  ASN50      -0.0877
     16  N         32.6130   53.1130   25.1530 N.am   51  PRO51      -0.2727
     17  CA        32.4730   54.0190   26.2950 C.3    51  PRO51       0.1402
     18  C         33.5820   53.9470   27.3150 C.2    51  PRO51       0.2269
     19  O         34.3830   53.0040   27.3810 O.2    51  PRO51      -0.2865
     20  CB        31.1500   53.6390   26.9130 C.3    51  PRO51       0.0296
     21  CG        30.9530   52.2150   26.4940 C.3    51  PRO51       0.0237
     22  CD        31.4700   52.2220   25.0630 C.3    51  PRO51       0.0939
     23  N         22.2390   50.8640   29.6430 N.3    72  LYS72      -0.1231
     24  CA        23.2850   50.1320   28.9450 C.3    72  LYS72       0.1693
     25  C         22.7190   48.7210   28.7460 C.2    72  LYS72       0.2593
     26  O         22.6700   47.9290   29.6960 O.2    72  LYS72      -0.2718
     27  CB        24.5090   50.1090   29.8330 C.3    72  LYS72       0.0285
     28  CG        25.7870   49.6210   29.1960 C.3    72  LYS72       0.0035
     29  CD        26.8680   49.6770   30.2290 C.3    72  LYS72       0.0206
     30  CE        28.0310   48.8660   29.7040 C.3    72  LYS72       0.1093
     31  NZ        28.9150   48.6040   30.8330 N.3    72  LYS72      -0.1314
     32  N         22.1780   48.4020   27.5620 N.am   73  THR73      -0.1939
     33  CA        21.6170   47.0980   27.2550 C.3    73  THR73       0.2028
     34  C         22.6840   46.0100   27.3970 C.2    73  THR73       0.2642
     35  O         23.8030   46.1850   26.8860 O.2    73  THR73      -0.2714
     36  CB        21.1300   47.1150   25.7970 C.3    73  THR73       0.1808
     37  OG1       20.4830   48.3500   25.5260 O.3    73  THR73      -0.2208
     38  CG2       20.1120   46.0250   25.5610 C.3    73  THR73       0.0379
     39  N         22.3670   44.8950   28.0690 N.am   74  ASP74      -0.1957
     40  CA        23.3250   43.8120   28.2350 C.3    74  ASP74       0.1840
     41  C         23.0820   42.6410   27.2800 C.2    74  ASP74       0.2622
     42  O         22.1230   41.8720   27.3970 O.2    74  ASP74      -0.2715
     43  CB        23.2060   43.3630   29.6780 C.3    74  ASP74       0.1450
     44  CG        24.4950   42.8570   30.3120 C.2    74  ASP74       0.3671
     45  OD1       25.5630   42.9000   29.6900 O.co2  74  ASP74      -0.2456
     46  OD2       24.4290   42.4200   31.4600 O.co2  74  ASP74      -0.2456
     47  N         23.9620   42.4950   26.3090 N.am   75  GLY75      -0.1954
     48  CA        23.7250   41.6400   25.1550 C.3    75  GLY75       0.1869
     49  C         25.0160   41.6010   24.3480 C.2    75  GLY75       0.2309
     50  O         26.0910   41.6140   24.9520 O.2    75  GLY75      -0.2863
     51  N         27.4260   43.5780   21.3570 N.3    77  ARG77      -0.1245
     52  CA        27.6420   44.7320   20.4970 C.3    77  ARG77       0.1563
     53  C         27.8210   44.2630   19.0680 C.2    77  ARG77       0.2260
     54  O         28.7050   43.4390   18.8140 O.2    77  ARG77      -0.2867
     55  CB        28.9440   45.4110   20.9050 C.3    77  ARG77       0.0307
     56  CG        29.4060   46.5410   20.0030 C.3    77  ARG77       0.0489
     57  CD        28.4850   47.7120   20.2390 C.3    77  ARG77       0.2205
     58  NE        28.9960   48.8370   19.4950 N.pl3  77  ARG77      -0.0865
     59  CZ        29.8910   49.6880   19.9800 C.cat  77  ARG77       0.5346
     60  NH1       30.5030   49.4900   21.1510 N.pl3  77  ARG77       0.1354
     61  NH2       30.1270   50.7890   19.2680 N.pl3  77  ARG77       0.1354
     62  N         32.9900   42.9910   17.7750 N.3    96  ARG96      -0.1245
     63  CA        34.1590   43.7810   18.0890 C.3    96  ARG96       0.1563
     64  C         35.4300   43.1130   17.6870 C.2    96  ARG96       0.2260
     65  O         36.4320   43.7950   17.4970 O.2    96  ARG96      -0.2867
     66  CB        34.2060   44.1570   19.5800 C.3    96  ARG96       0.0307
     67  CG        33.1300   45.1790   19.9790 C.3    96  ARG96       0.0489
     68  CD        33.0320   45.5590   21.4550 C.3    96  ARG96       0.2205
     69  NE        34.2120   46.2540   21.9510 N.pl3  96  ARG96      -0.0865
     70  CZ        34.5090   46.2500   23.2610 C.cat  96  ARG96       0.5346
     71  NH1       33.7360   45.6420   24.1760 N.pl3  96  ARG96       0.1354
     72  NH2       35.6300   46.8390   23.6550 N.pl3  96  ARG96       0.1354
     73  N         23.0430   46.7130   19.5010 N.3   121  GLU121     -0.1245
     74  CA        23.1840   45.6230   20.4600 C.3   121  GLU121      0.1567
     75  C         22.1910   44.5180   20.1060 C.2   121  GLU121      0.2260
     76  O         20.9980   44.8430   19.9520 O.2   121  GLU121     -0.2867
     77  CB        22.7680   46.1640   21.8010 C.3   121  GLU121      0.0388
     78  CG        23.1200   45.3320   23.0080 C.3   121  GLU121      0.1160
     79  CD        24.5480   45.4190   23.5350 C.2   121  GLU121      0.3649
     80  OE1       25.3290   46.2600   23.1080 O.co2 121  GLU121     -0.2457
     81  OE2       24.9160   44.6760   24.4020 O.co2 121  GLU121     -0.2457
     82  N         21.5360   52.0230   18.2050 N.3   136  PHE136     -0.1241
     83  CA        21.9860   53.1170   19.0520 C.3   136  PHE136      0.1605
     84  C         22.1970   54.4180   18.2930 C.2   136  PHE136      0.2264
     85  O         22.0790   55.4940   18.8810 O.2   136  PHE136     -0.2867
     86  CB        23.3910   52.9130   19.6510 C.3   136  PHE136      0.0534
     87  CG        23.7790   51.6100   20.2940 C.ar  136  PHE136     -0.0203
     88  CD1       22.8150   50.8260   20.9260 C.ar  136  PHE136     -0.0042
     89  CD2       25.1420   51.2460   20.3120 C.ar  136  PHE136     -0.0042
     90  CE1       23.2240   49.6840   21.5970 C.ar  136  PHE136     -0.0003
     91  CE2       25.5530   50.0920   20.9970 C.ar  136  PHE136     -0.0003
     92  CZ        24.5840   49.3210   21.6340 C.ar  136  PHE136     -0.0000
     93  N         17.1870   52.7750   20.0910 N.3   178  LYS178     -0.1245
     94  CA        17.4800   53.2870   21.4210 C.3   178  LYS178      0.1561
     95  C         16.7860   54.6280   21.6620 C.2   178  LYS178      0.2260
     96  O         16.9780   55.5950   20.9240 O.2   178  LYS178     -0.2867
     97  CB        18.9640   53.4950   21.5840 C.3   178  LYS178      0.0271
     98  CG        19.5190   53.3850   23.0080 C.3   178  LYS178      0.0035
     99  CD        19.7950   51.9190   23.3160 C.3   178  LYS178      0.0206
    100  CE        20.3710   51.6020   24.6740 C.3   178  LYS178      0.1093
    101  NZ        21.7390   52.0430   24.7950 N.3   178  LYS178     -0.1314
    102  N         16.9170   57.7780   23.4790 N.3   180  TRP180     -0.1241
    103  CA        17.8420   58.6630   24.2020 C.3   180  TRP180      0.1605
    104  C         17.1060   59.8390   24.8570 C.2   180  TRP180      0.2264
    105  O         16.3100   60.5280   24.2100 O.2   180  TRP180     -0.2867
    106  CB        18.8730   59.2280   23.2350 C.3   180  TRP180      0.0550
    107  CG        19.8480   58.1910   22.7010 C.ar  180  TRP180      0.0003
    108  CD1       19.7330   57.6390   21.4550 C.ar  180  TRP180      0.0946
    109  CD2       20.9320   57.7210   23.3630 C.ar  180  TRP180      0.0152
    110  NE1       20.7490   56.8280   21.3140 N.ar  180  TRP180     -0.2442
    111  CE2       21.4880   56.8410   22.4260 C.ar  180  TRP180      0.0810
    112  CE3       21.5170   57.9140   24.6120 C.ar  180  TRP180      0.0012
    113  CZ2       22.6520   56.1390   22.7390 C.ar  180  TRP180      0.0191
    114  CZ3       22.7000   57.2440   24.9200 C.ar  180  TRP180      0.0001
    115  CH2       23.2610   56.3560   23.9890 C.ar  180  TRP180      0.0015
    116  N         22.8790   47.0730   32.0980 N.3   203  ASP203     -0.1239
    117  CA        24.0300   47.0620   32.9720 C.3   203  ASP203      0.1674
    118  C         24.3640   48.5030   33.3970 C.2   203  ASP203      0.2266
    119  O         25.5210   48.9340   33.4210 O.2   203  ASP203     -0.2867
    120  CB        25.1500   46.3200   32.2220 C.3   203  ASP203      0.1410
    121  CG        26.4770   46.1870   32.9460 C.2   203  ASP203      0.3668
    122  OD1       26.4780   45.9430   34.1550 O.co2 203  ASP203     -0.2456
    123  OD2       27.5010   46.3440   32.2780 O.co2 203  ASP203     -0.2456
    124  N         24.1760   54.6690   29.7970 N.3   206  ILE206     -0.1245
    125  CA        25.1420   55.2390   28.8490 C.3   206  ILE206      0.1561
    126  C         24.7490   56.6960   28.6850 C.2   206  ILE206      0.2260
    127  O         23.5510   56.9880   28.5630 O.2   206  ILE206     -0.2867
    128  CB        25.0640   54.5380   27.4750 C.3   206  ILE206      0.0252
    129  CG1       25.4100   53.0630   27.5740 C.3   206  ILE206      0.0019
    130  CG2       26.0540   55.1490   26.4920 C.3   206  ILE206      0.0019
    131  CD1       26.8840   52.7500   27.9200 C.3   206  ILE206      0.0001
    132  N         25.6240   59.9890   26.3310 N.3   208  MET208     -0.1196
    133  CA        26.2690   60.3460   25.0620 C.3   208  MET208      0.1786
    134  C         26.0150   61.8180   24.6540 C.2   208  MET208      0.2306
    135  O         24.9230   62.3790   24.8220 O.2   208  MET208     -0.2863
    136  CB        25.7470   59.3860   23.9500 C.2   208  MET208      0.0070
    137  CG        26.4090   59.5000   22.5830 C.2   208  MET208      0.0282
    138  SD        26.1010   58.2750   21.2890 S.3   208  MET208     -0.1125
    139  CE        24.4210   58.6220   21.1040 C.3   208  MET208      0.0742
    140  N         32.0950   59.3080   25.9110 N.3   222  LEU222     -0.1245
    141  CA        30.9090   58.4480   25.9800 C.3   222  LEU222      0.1561
    142  C         31.1250   57.7780   27.3170 C.2   222  LEU222      0.2260
    143  O         32.1590   57.1180   27.5020 O.2   222  LEU222     -0.2867
    144  CB        30.9340   57.2940   24.9670 C.3   222  LEU222      0.0270
    145  CG        29.7620   56.8700   24.1150 C.3   222  LEU222      0.0019
    146  CD1       29.9600   55.4350   23.7210 C.3   222  LEU222      0.0001
    147  CD2       28.3860   57.0140   24.7160 C.3   222  LEU222      0.0001
    148  N         29.9160   55.3440   30.5570 N.3   224  LYS224     -0.1245
    149  CA        29.0290   54.3100   31.0900 C.3   224  LYS224      0.1561
    150  C         29.0180   54.3880   32.6090 C.2   224  LYS224      0.2260
    151  O         29.9920   54.8410   33.2420 O.2   224  LYS224     -0.2867
    152  CB        29.4440   52.8980   30.6400 C.3   224  LYS224      0.0271
    153  CG        30.8890   52.5950   31.0250 C.3   224  LYS224      0.0035
    154  CD        31.3970   51.2920   30.4980 C.3   224  LYS224      0.0206
    155  CE        32.7980   51.1130   31.0340 C.3   224  LYS224      0.1093
    156  NZ        33.5910   50.0950   30.3420 N.3   224  LYS224     -0.1314
    157  N         27.9710   51.7300   35.8180 N.3   226  LYS226     -0.1245
    158  CA        27.4560   50.5080   36.4110 C.3   226  LYS226      0.1561
    159  C         26.7050   50.8250   37.6880 C.2   226  LYS226      0.2260
    160  O         27.2200   51.5920   38.5170 O.2   226  LYS226     -0.2867
    161  CB        28.5830   49.5930   36.8210 C.3   226  LYS226      0.0271
    162  CG        29.0210   48.6110   35.7690 C.3   226  LYS226      0.0035
    163  CD        29.1620   47.2830   36.4790 C.3   226  LYS226      0.0206
    164  CE        29.4340   46.2050   35.4590 C.3   226  LYS226      0.1093
    165  NZ        28.9970   44.9210   35.9880 N.3   226  LYS226     -0.1314
@<TRIPOS>BOND
     1    65    64    2
     2    64    63    1
     3    62    63    1
     4    63    66    1
     5    82    83    1
     6    84    85    2
     7    84    83    1
     8     7     1    1
     9     7     6    1
    10    54    53    2
    11     1     2    1
    12    83    86    1
    13    53    52    1
    14    61    59    1
    15    58    59    2
    16    58    57    1
    17    73    74    1
    18    66    67    1
    19    86    87    1
    20    76    75    2
    21    67    68    1
    22    59    60    1
    23    56    57    1
    24    56    55    1
    25     2     5    1
    26     2     3    1
    27    93    94    1
    28    75    74    1
    29     6     5    1
    30    87    89   ar
    31    87    88   ar
    32    89    91   ar
    33    74    77    1
    34    52    55    1
    35    52    51    1
    36    96    95    2
    37    88    90   ar
    38    91    92   ar
    39   139   138    1
    40     3     4    2
    41     3     8   am
    42   138   137    1
    43   110   108   ar
    44   110   111   ar
    45    14    13    2
    46    94    97    1
    47    94    95    1
    48   108   107   ar
    49    68    69    1
    50    15    13   am
    51    97    98    1
    52    90    92   ar
    53    77    78    1
    54     8     9    1
    55    13    12    1
    56    69    70    2
    57   111   113   ar
    58   111   109   ar
    59   137   136    2
    60   107   106    1
    61   107   109   ar
    62   113   115   ar
    63    98    99    1
    64    78    79    1
    65     9    12    1
    66     9    10    1
    67    80    79   ar
    68   106   103    1
    69    70    72    1
    70    70    71    1
    71    99   100    1
    72   109   112   ar
    73   102   103    1
    74    79    81   ar
    75   146   145    1
    76   136   133    1
    77   115   114   ar
    78   145   147    1
    79   145   144    1
    80   103   104    1
    81   105   104    2
    82    10    11    2
    83    10    16   am
    84    49    50    2
    85    49    48    1
    86   112   114   ar
    87   134   135    2
    88   134   133    1
    89   100   101    1
    90   144   141    1
    91   133   132    1
    92    22    16    1
    93    22    21    1
    94    16    17    1
    95    48    47    1
    96    37    36    1
    97    38    36    1
    98    36    33    1
    99   140   141    1
   100   141   142    1
   101    17    20    1
   102    17    18    1
   103    47    41   am
   104   130   128    1
   105    21    20    1
   106    35    34    2
   107    33    34    1
   108    33    32    1
   109    41    42    2
   110    41    40    1
   111    18    19    2
   112   142   143    2
   113    34    39   am
   114   128   129    1
   115   128   125    1
   116    32    25   am
   117   129   131    1
   118    39    40    1
   119    40    43    1
   120   127   126    2
   121   126   125    1
   122    25    24    1
   123    25    26    2
   124   125   124    1
   125    24    23    1
   126    24    27    1
   127    28    27    1
   128    28    29    1
   129    43    44    1
   130    45    44   ar
   131    30    29    1
   132    30    31    1
   133    44    46   ar
   134   156   155    1
   135   154   153    1
   136   154   155    1
   137   148   149    1
   138   152   153    1
   139   152   149    1
   140   149   150    1
   141   116   117    1
   142   120   121    1
   143   120   117    1
   144   123   121   ar
   145   150   151    2
   146   121   122   ar
   147   117   118    1
   148   118   119    2
   149   164   165    1
   150   164   163    1
   151   162   163    1
   152   162   161    1
   153   157   158    1
   154   158   161    1
   155   158   159    1
   156   159   160    2
