@<TRIPOS>MOLECULE
tmp/1ckoA00.pdb
 210 198 0 0 0
SMALL
GASTEIGER

@<TRIPOS>ATOM
      1  N         38.9720   49.0250    9.4480 N.3     9  LEU9       -0.1245
      2  CA        39.9360   49.3830    8.4510 C.3     9  LEU9        0.1561
      3  C         41.2500   49.5480    9.1590 C.2     9  LEU9        0.2260
      4  O         41.2820   49.8770   10.3590 O.2     9  LEU9       -0.2867
      5  CB        39.4770   50.6210    7.7400 C.3     9  LEU9        0.0270
      6  CG        38.3550   50.3760    6.7750 C.3     9  LEU9        0.0019
      7  CD1       37.7570   51.6700    6.3620 C.3     9  LEU9        0.0001
      8  CD2       38.8320   49.5470    5.5970 C.3     9  LEU9        0.0001
      9  N         45.1750   50.9070    8.6660 N.3    11  LEU11      -0.1245
     10  CA        45.9650   51.8360    7.9340 C.3    11  LEU11       0.1561
     11  C         47.1710   52.1810    8.7060 C.2    11  LEU11       0.2260
     12  O         47.0940   52.6590    9.8500 O.2    11  LEU11      -0.2867
     13  CB        45.2460   53.1230    7.8010 C.3    11  LEU11       0.0270
     14  CG        44.2210   53.2080    6.7630 C.3    11  LEU11       0.0019
     15  CD1       43.9250   54.6690    6.6270 C.3    11  LEU11       0.0001
     16  CD2       44.6850   52.5670    5.4630 C.3    11  LEU11       0.0001
     17  N         37.1120   63.7000   -8.5570 N.3    49  PRO49      -0.2102
     18  CA        38.0350   63.7000   -9.6520 C.3    49  PRO49       0.1504
     19  C         39.0940   62.6710   -9.3640 C.2    49  PRO49       0.2576
     20  O         39.4880   62.3640   -8.2230 O.2    49  PRO49      -0.2718
     21  CB        38.5820   65.1020   -9.6000 C.3    49  PRO49       0.0282
     22  CG        38.6960   65.3400   -8.0940 C.3    49  PRO49       0.0208
     23  CD        37.4310   64.7030   -7.5360 C.3    49  PRO49       0.0893
     24  N         39.5430   62.0950  -10.4490 N.am   50  ASN50      -0.1961
     25  CA        40.6630   61.1940  -10.3760 C.3    50  ASN50       0.1804
     26  C         41.8840   61.8850  -11.0040 C.2    50  ASN50       0.2463
     27  O         41.7390   62.3360  -12.1600 O.2    50  ASN50      -0.2730
     28  CB        40.2530   59.8850  -11.0440 C.3    50  ASN50       0.1195
     29  CG        39.4360   58.8950  -10.2040 C.2    50  ASN50       0.2630
     30  OD1       38.8200   57.9560  -10.7210 O.2    50  ASN50      -0.2716
     31  ND2       39.3850   58.9650   -8.8770 N.am   50  ASN50      -0.0877
     32  N         43.0210   62.0690  -10.2700 N.am   51  PRO51      -0.2727
     33  CA        44.2750   62.6670  -10.7250 C.3    51  PRO51       0.1402
     34  C         44.8280   61.9370  -11.9220 C.2    51  PRO51       0.2269
     35  O         44.3960   60.8340  -12.1860 O.2    51  PRO51      -0.2865
     36  CB        45.2390   62.4170   -9.5950 C.3    51  PRO51       0.0296
     37  CG        44.3620   62.4710   -8.3760 C.3    51  PRO51       0.0237
     38  CD        43.2260   61.5880   -8.9150 C.3    51  PRO51       0.0939
     39  N         50.0950   64.7430   -1.6280 N.3    72  LYS72      -0.1231
     40  CA        49.2180   63.6210   -1.9290 C.3    72  LYS72       0.1693
     41  C         49.1840   62.7250   -0.6900 C.2    72  LYS72       0.2592
     42  O         50.1280   61.9710   -0.4280 O.2    72  LYS72      -0.2718
     43  CB        49.7440   62.8690   -3.1300 C.3    72  LYS72       0.0285
     44  CG        48.8710   61.6650   -3.4610 C.3    72  LYS72       0.0035
     45  CD        49.4900   60.8320   -4.5650 C.3    72  LYS72       0.0206
     46  CE        48.6810   59.5750   -4.6010 C.3    72  LYS72       0.1093
     47  NZ        49.1990   58.7460   -5.6510 N.3    72  LYS72      -0.1314
     48  N         48.1770   62.8630    0.1640 N.am   73  THR73      -0.1953
     49  CA        48.1650   62.1380    1.4180 C.3    73  THR73       0.1897
     50  C         48.0860   60.7000    1.0350 C.2    73  THR73       0.2313
     51  O         47.4330   60.3530    0.0460 O.2    73  THR73      -0.2863
     52  CB        46.9120   62.5500    2.1290 C.3    73  THR73       0.1794
     53  OG1       46.9670   63.9650    2.1250 O.3    73  THR73      -0.2208
     54  CG2       46.8570   62.1100    3.5580 C.3    73  THR73       0.0378
     55  N         46.4970   57.7320    2.1120 N.3    75  GLY75      -0.1210
     56  CA        45.3550   57.3850    2.9340 C.3    75  GLY75       0.1956
     57  C         44.3160   56.6480    2.1120 C.2    75  GLY75       0.2612
     58  O         44.6330   56.0930    1.0500 O.2    75  GLY75      -0.2717
     59  N         43.0660   56.6330    2.5570 N.am   76  ILE76      -0.1965
     60  CA        42.0630   56.0600    1.6900 C.3    76  ILE76       0.1727
     61  C         41.2050   57.2040    1.2720 C.2    76  ILE76       0.2616
     62  O         40.6890   57.9420    2.1130 O.2    76  ILE76      -0.2715
     63  CB        41.1320   55.0480    2.3220 C.3    76  ILE76       0.0290
     64  CG1       41.8490   53.9720    3.0740 C.3    76  ILE76       0.0022
     65  CG2       40.3390   54.3910    1.1870 C.3    76  ILE76       0.0023
     66  CD1       40.7860   53.1110    3.7620 C.3    76  ILE76       0.0001
     67  N         41.0570   57.3440   -0.0280 N.am   77  ARG77      -0.1977
     68  CA        40.0390   58.2420   -0.5170 C.3    77  ARG77       0.1597
     69  C         38.6570   57.7590   -0.0860 C.2    77  ARG77       0.2287
     70  O         38.4160   56.5500   -0.0200 O.2    77  ARG77      -0.2864
     71  CB        40.0990   58.2700   -2.0140 C.3    77  ARG77       0.0334
     72  CG        38.8990   58.9530   -2.6850 C.3    77  ARG77       0.0492
     73  CD        39.3360   60.3330   -3.0490 C.3    77  ARG77       0.2205
     74  NE        38.3510   61.1830   -3.7080 N.pl3  77  ARG77      -0.0865
     75  CZ        38.1250   61.1700   -5.0200 C.cat  77  ARG77       0.5346
     76  NH1       38.5980   60.2170   -5.8190 N.pl3  77  ARG77       0.1354
     77  NH2       37.5240   62.2210   -5.5490 N.pl3  77  ARG77       0.1354
     78  N         33.7350   54.7460   -0.1770 N.3    95  ASP95      -0.1225
     79  CA        34.9110   54.1280   -0.7780 C.3    95  ASP95       0.1805
     80  C         34.6390   54.1680   -2.2770 C.2    95  ASP95       0.2597
     81  O         33.4740   54.2220   -2.7130 O.2    95  ASP95      -0.2718
     82  CB        34.8960   52.6700   -0.2750 C.3    95  ASP95       0.1424
     83  CG        36.1490   51.8110   -0.1630 C.2    95  ASP95       0.3668
     84  OD1       36.5360   51.2250   -1.1730 O.co2  95  ASP95      -0.2456
     85  OD2       36.7010   51.6750    0.9370 O.co2  95  ASP95      -0.2456
     86  N         35.7200   53.9990   -3.0520 N.am   96  ARG96      -0.1979
     87  CA        35.6910   53.9780   -4.5180 C.3    96  ARG96       0.1597
     88  C         34.8620   52.8670   -5.1670 C.2    96  ARG96       0.2287
     89  O         34.5890   52.8370   -6.3710 O.2    96  ARG96      -0.2864
     90  CB        37.1210   53.9520   -5.1440 C.3    96  ARG96       0.0334
     91  CG        38.0010   52.7020   -4.9390 C.3    96  ARG96       0.0492
     92  CD        39.0490   52.4280   -6.0220 C.3    96  ARG96       0.2205
     93  NE        40.1740   53.3230   -5.8980 N.pl3  96  ARG96      -0.0865
     94  CZ        41.3540   53.0220   -6.4200 C.cat  96  ARG96       0.5346
     95  NH1       41.6360   51.8230   -6.9310 N.pl3  96  ARG96       0.1354
     96  NH2       42.2770   53.9680   -6.4210 N.pl3  96  ARG96       0.1354
     97  N         40.2020   62.6890    2.4310 N.3   121  GLU121     -0.1245
     98  CA        40.9920   61.4960    2.5910 C.3   121  GLU121      0.1567
     99  C         40.9660   60.9400    4.0060 C.2   121  GLU121      0.2260
    100  O         41.1560   61.7090    4.9580 O.2   121  GLU121     -0.2867
    101  CB        42.3900   61.9120    2.3590 C.3   121  GLU121      0.0388
    102  CG        43.3320   60.7350    2.2660 C.3   121  GLU121      0.1160
    103  CD        43.3440   60.0860    0.9020 C.2   121  GLU121      0.3649
    104  OE1       42.4310   60.2780    0.0850 O.co2 121  GLU121     -0.2457
    105  OE2       44.3190   59.3860    0.6650 O.co2 121  GLU121     -0.2457
    106  N         39.5870   67.7540    1.1590 N.3   136  PHE136     -0.1241
    107  CA        40.3070   68.3690    0.0620 C.3   136  PHE136      0.1605
    108  C         39.4440   69.4910   -0.3880 C.2   136  PHE136      0.2264
    109  O         39.8910   70.6160   -0.5340 O.2   136  PHE136     -0.2867
    110  CB        40.3830   67.6110   -1.2500 C.3   136  PHE136      0.0534
    111  CG        40.7690   66.1680   -1.2480 C.ar  136  PHE136     -0.0203
    112  CD1       41.5970   65.6480   -0.2610 C.ar  136  PHE136     -0.0042
    113  CD2       40.2840   65.3810   -2.2870 C.ar  136  PHE136     -0.0042
    114  CE1       41.9230   64.2970   -0.3040 C.ar  136  PHE136     -0.0003
    115  CE2       40.6350   64.0400   -2.3360 C.ar  136  PHE136     -0.0003
    116  CZ        41.4470   63.4980   -1.3350 C.ar  136  PHE136     -0.0000
    117  N         42.6230   70.3620    3.6550 N.3   178  LYS178     -0.1245
    118  CA        43.8530   70.3340    2.9080 C.3   178  LYS178      0.1561
    119  C         44.2250   71.7920    2.6580 C.2   178  LYS178      0.2260
    120  O         43.4470   72.6300    2.2020 O.2   178  LYS178     -0.2867
    121  CB        43.6650   69.5330    1.6410 C.3   178  LYS178      0.0271
    122  CG        44.9890   68.9990    1.1280 C.3   178  LYS178      0.0035
    123  CD        44.8750   67.4960    0.9280 C.3   178  LYS178      0.0206
    124  CE        45.5620   67.0360   -0.3550 C.3   178  LYS178      0.1093
    125  NZ        44.6860   66.9890   -1.5200 N.3   178  LYS178     -0.1314
    126  N         45.6690   74.1400    0.4610 N.3   180  TRP180     -0.1241
    127  CA        46.0550   74.0910   -0.9340 C.3   180  TRP180      0.1605
    128  C         46.9740   75.2260   -1.4030 C.2   180  TRP180      0.2264
    129  O         46.4480   76.3110   -1.6200 O.2   180  TRP180     -0.2867
    130  CB        44.7780   74.0880   -1.7710 C.3   180  TRP180      0.0550
    131  CG        44.0080   72.7770   -1.8660 C.ar  180  TRP180      0.0003
    132  CD1       42.8670   72.5900   -1.1460 C.ar  180  TRP180      0.0946
    133  CD2       44.2670   71.7390   -2.7170 C.ar  180  TRP180      0.0152
    134  NE1       42.3900   71.4440   -1.5470 N.ar  180  TRP180     -0.2442
    135  CE2       43.2040   70.9050   -2.4620 C.ar  180  TRP180      0.0810
    136  CE3       45.1990   71.4150   -3.6940 C.ar  180  TRP180      0.0012
    137  CZ2       43.1030   69.7070   -3.1400 C.ar  180  TRP180      0.0191
    138  CZ3       45.0610   70.2410   -4.4240 C.ar  180  TRP180      0.0001
    139  CH2       44.0240   69.3840   -4.1320 C.ar  180  TRP180      0.0015
    140  N         52.5720   60.8350   -0.6270 N.3   203  ASP203     -0.1239
    141  CA        53.1220   60.1850   -1.8260 C.3   203  ASP203      0.1674
    142  C         53.3850   61.2000   -2.9490 C.2   203  ASP203      0.2266
    143  O         53.2220   60.9660   -4.1660 O.2   203  ASP203     -0.2867
    144  CB        52.1290   59.0960   -2.2700 C.3   203  ASP203      0.1410
    145  CG        52.4950   58.1780   -3.4310 C.2   203  ASP203      0.3668
    146  OD1       53.6640   57.8110   -3.5890 O.co2 203  ASP203     -0.2456
    147  OD2       51.5850   57.8310   -4.1810 O.co2 203  ASP203     -0.2456
    148  N         49.9180   66.6240   -5.3050 N.3   206  ILE206     -0.1245
    149  CA        48.7330   66.6980   -6.1370 C.3   206  ILE206      0.1561
    150  C         48.6120   68.1390   -6.6110 C.2   206  ILE206      0.2260
    151  O         48.8480   69.0340   -5.8090 O.2   206  ILE206     -0.2867
    152  CB        47.5140   66.2090   -5.3380 C.3   206  ILE206      0.0252
    153  CG1       47.6860   64.7550   -5.0680 C.3   206  ILE206      0.0019
    154  CG2       46.2110   66.2380   -6.1200 C.3   206  ILE206      0.0019
    155  CD1       47.7700   63.9410   -6.3860 C.3   206  ILE206      0.0001
    156  N         46.1260   70.8370   -8.5800 N.3   208  MET208     -0.1245
    157  CA        44.7120   70.9900   -8.9540 C.3   208  MET208      0.1570
    158  C         44.4660   72.4280   -9.4320 C.2   208  MET208      0.2261
    159  O         45.0720   73.3950   -8.9010 O.2   208  MET208     -0.2867
    160  CB        43.8460   70.6840   -7.7290 C.3   208  MET208      0.0387
    161  CG        42.3670   70.6570   -8.0910 C.3   208  MET208      0.0595
    162  SD        41.2540   70.0200   -6.8320 S.3   208  MET208     -0.1393
    163  CE        41.7790   71.1790   -5.6430 C.3   208  MET208      0.0692
    164  N         43.9070   67.0750  -13.2870 N.3   222  LEU222     -0.1245
    165  CA        44.2880   66.9350  -11.9070 C.3   222  LEU222      0.1561
    166  C         45.5710   66.1250  -11.9770 C.2   222  LEU222      0.2260
    167  O         45.6450   65.0090  -12.5130 O.2   222  LEU222     -0.2867
    168  CB        43.2410   66.1800  -11.1380 C.3   222  LEU222      0.0270
    169  CG        43.1470   66.4970   -9.6490 C.3   222  LEU222      0.0019
    170  CD1       42.5070   65.3250   -8.9360 C.3   222  LEU222      0.0001
    171  CD2       44.4770   66.6740   -8.9370 C.3   222  LEU222      0.0001
    172  N         49.0170   64.1840  -10.5830 N.3   224  LYS224     -0.1245
    173  CA        49.7360   63.5320   -9.4910 C.3   224  LYS224      0.1561
    174  C         51.2170   63.4200   -9.8110 C.2   224  LYS224      0.2260
    175  O         51.6200   63.2930  -10.9820 O.2   224  LYS224     -0.2867
    176  CB        49.1620   62.1520   -9.1940 C.3   224  LYS224      0.0271
    177  CG        49.0620   61.1650  -10.3590 C.3   224  LYS224      0.0035
    178  CD        48.2300   59.9910   -9.8790 C.3   224  LYS224      0.0206
    179  CE        47.9720   59.0370  -11.0120 C.3   224  LYS224      0.1093
    180  NZ        47.2670   57.8780  -10.5230 N.3   224  LYS224     -0.1314
    181  N         54.4840   61.6600   -8.0610 N.3   226  LYS226     -0.1245
    182  CA        54.5180   60.5360   -7.2160 C.3   226  LYS226      0.1561
    183  C         55.8990   60.0380   -7.5100 C.2   226  LYS226      0.2260
    184  O         56.2900   59.7590   -8.6630 O.2   226  LYS226     -0.2867
    185  CB        53.5130   59.5830   -7.7200 C.3   226  LYS226      0.0271
    186  CG        53.3940   58.4920   -6.7320 C.3   226  LYS226      0.0035
    187  CD        52.9280   57.2660   -7.4680 C.3   226  LYS226      0.0206
    188  CE        51.4600   57.3410   -7.8140 C.3   226  LYS226      0.1093
    189  NZ        51.0940   56.2040   -8.6410 N.3   226  LYS226     -0.1314
    190  N         57.0020   53.8230   -7.4370 N.3   230  HIS230     -0.1241
    191  CA        55.7400   53.3810   -6.9520 C.3   230  HIS230      0.1621
    192  C         54.9060   53.4340   -8.2350 C.2   230  HIS230      0.2264
    193  O         53.8400   54.0530   -8.3090 O.2   230  HIS230     -0.2867
    194  CB        55.4650   54.4110   -5.8630 C.3   230  HIS230      0.0745
    195  CG        54.1820   54.2860   -5.0410 C.ar  230  HIS230      0.0817
    196  ND1       54.0600   54.6680   -3.7610 N.ar  230  HIS230     -0.2268
    197  CD2       52.9150   53.9960   -5.5160 C.ar  230  HIS230      0.1154
    198  CE1       52.7800   54.6510   -3.4750 C.ar  230  HIS230      0.1986
    199  NE2       52.1020   54.2790   -4.5380 N.ar  230  HIS230     -0.2212
    200  N         47.8470   38.9620   -7.8390 N.3   285  ARG285     -0.1245
    201  CA        46.5900   39.6660   -7.7700 C.3   285  ARG285      0.1563
    202  C         45.5210   38.6880   -8.1470 C.2   285  ARG285      0.2260
    203  O         44.9920   38.7180   -9.2680 O.2   285  ARG285     -0.2867
    204  CB        46.5410   40.7610   -8.8230 C.3   285  ARG285      0.0307
    205  CG        47.4480   41.8840   -8.5260 C.3   285  ARG285      0.0489
    206  CD        46.7890   42.6930   -7.4220 C.3   285  ARG285      0.2205
    207  NE        46.2790   43.9360   -7.9590 N.pl3 285  ARG285     -0.0865
    208  CZ        47.1160   44.8620   -8.4440 C.cat 285  ARG285      0.5346
    209  NH1       48.4360   44.6730   -8.4930 N.pl3 285  ARG285      0.1354
    210  NH2       46.6400   46.0290   -8.8860 N.pl3 285  ARG285      0.1354
@<TRIPOS>BOND
     1   164   165    1
     2   167   166    2
     3    35    34    2
     4    27    26    2
     5   166   165    1
     6    34    33    1
     7   165   168    1
     8   168   169    1
     9    28    25    1
    10    28    29    1
    11   179   180    1
    12   179   178    1
    13    26    25    1
    14    26    32   am
    15   175   174    2
    16    33    32    1
    17    33    36    1
    18    30    29    2
    19   172   173    1
    20    24    25    1
    21    24    19   am
    22   177   178    1
    23   177   176    1
    24    32    38    1
    25    29    31   am
    26   174   173    1
    27    18    21    1
    28    18    19    1
    29    18    17    1
    30   169   171    1
    31   169   170    1
    32    21    22    1
    33    36    37    1
    34   173   176    1
    35   158   157    1
    36   158   159    2
    37    19    20    2
    38   203   202    2
    39   157   156    1
    40   157   160    1
    41    38    37    1
    42   210   208    1
    43   204   205    1
    44   204   201    1
    45   184   183    2
    46   189   188    1
    47    17    23    1
    48   205   206    1
    49   209   208    1
    50   208   207    2
    51   193   192    2
    52   192   191    1
    53   202   201    1
    54    22    23    1
    55   161   160    1
    56   161   162    1
    57   181   182    1
    58   207   206    1
    59   200   201    1
    60   188   187    1
    61   185   182    1
    62   185   186    1
    63   183   182    1
    64   187   186    1
    65   190   191    1
    66   191   194    1
    67    95    94    1
    68   162   163    1
    69   150   149    1
    70   150   151    2
    71    96    94    1
    72    94    93    2
    73   155   153    1
    74    89    88    2
    75   149   152    1
    76   149   148    1
    77   154   152    1
    78    92    93    1
    79    92    91    1
    80   194   195    1
    81    76    75    1
    82    47    46    1
    83    77    75    1
    84   197   195   ar
    85   197   199   ar
    86   152   153    1
    87    88    87    1
    88    90    91    1
    89    90    87    1
    90   195   196   ar
    91    75    74    2
    92    46    45    1
    93    45    44    1
    94   199   198   ar
    95    87    86    1
    96   138   139   ar
    97   138   136   ar
    98   147   145   ar
    99   143   142    2
   100   139   137   ar
   101   196   198   ar
   102    74    73    1
   103   136   133   ar
   104   146   145   ar
   105    44    43    1
   106   145   144    1
   107   137   135   ar
   108    43    40    1
   109    86    80   am
   110    73    72    1
   111   142   141    1
   112   133   135   ar
   113   133   131   ar
   114    81    80    2
   115    72    71    1
   116   135   134   ar
   117   115   113   ar
   118   115   116   ar
   119   113   111   ar
   120    80    79    1
   121   144   141    1
   122    71    68    1
   123    40    39    1
   124    40    41    1
   125   131   130    1
   126   131   132   ar
   127   141   140    1
   128   130   127    1
   129   129   128    2
   130   134   132   ar
   131   125   124    1
   132   128   127    1
   133   116   114   ar
   134   110   111    1
   135   110   107    1
   136   111   112   ar
   137    84    83   ar
   138   127   126    1
   139    79    82    1
   140    79    78    1
   141    41    42    2
   142    41    48   am
   143   109   108    2
   144    68    69    1
   145    68    67    1
   146   108   107    1
   147   124   123    1
   148   114   112   ar
   149    82    83    1
   150    83    85   ar
   151    69    70    2
   152    67    61   am
   153    51    50    2
   154   107   106    1
   155   104   103   ar
   156    48    49    1
   157   105   103   ar
   158   103   102    1
   159   123   122    1
   160    50    49    1
   161    58    57    2
   162   122   121    1
   163    65    63    1
   164    61    60    1
   165    61    62    2
   166    49    52    1
   167   121   118    1
   168    60    63    1
   169    60    59    1
   170    57    59   am
   171    57    56    1
   172    55    56    1
   173    53    52    1
   174    52    54    1
   175   120   119    2
   176   102   101    1
   177    63    64    1
   178   101    98    1
   179    97    98    1
   180    98    99    1
   181   119   118    1
   182   118   117    1
   183    64    66    1
   184    99   100    2
   185    16    14    1
   186     8     6    1
   187     7     6    1
   188    15    14    1
   189    14    13    1
   190     6     5    1
   191     5     2    1
   192    13    10    1
   193    10     9    1
   194    10    11    1
   195     2     3    1
   196     2     1    1
   197    11    12    2
   198     3     4    2
