@<TRIPOS>MOLECULE
tmp/1ckpA00.pdb
 132 126 0 0 0
SMALL
GASTEIGER

@<TRIPOS>ATOM
      1  N         27.0830   23.2370   33.2130 N.3    10  ILE10      -0.1245
      2  CA        26.0330   23.4240   32.2180 C.3    10  ILE10       0.1561
      3  C         26.1990   22.3000   31.2010 C.2    10  ILE10       0.2260
      4  O         25.2590   21.5510   30.9340 O.2    10  ILE10      -0.2867
      5  CB        26.1540   24.7850   31.4980 C.3    10  ILE10       0.0252
      6  CG1       26.0830   25.9260   32.5070 C.3    10  ILE10       0.0019
      7  CG2       25.0390   24.9430   30.4870 C.3    10  ILE10       0.0019
      8  CD1       24.8220   25.9180   33.3350 C.3    10  ILE10       0.0001
      9  N         31.5570   24.1680   30.2580 N.3    18  VAL18      -0.1245
     10  CA        30.9340   25.4120   30.6850 C.3    18  VAL18       0.1561
     11  C         30.2790   25.2080   32.0430 C.2    18  VAL18       0.2260
     12  O         29.4830   24.2880   32.2250 O.2    18  VAL18      -0.2867
     13  CB        29.8680   25.9080   29.6820 C.3    18  VAL18       0.0252
     14  CG1       29.2890   27.2480   30.1510 C.3    18  VAL18       0.0019
     15  CG2       30.4720   26.0490   28.2900 C.3    18  VAL18       0.0019
     16  N         28.8030   32.6640   33.5040 N.3    31  ALA31      -0.1245
     17  CA        29.0600   31.4240   32.7950 C.3    31  ALA31       0.1562
     18  C         30.5640   31.3470   32.5620 C.2    31  ALA31       0.2260
     19  O         31.1460   32.1930   31.8750 O.2    31  ALA31      -0.2867
     20  CB        28.3230   31.4030   31.4820 C.3    31  ALA31       0.0290
     21  N         33.7400   29.4330   31.0170 N.3    33  LYS33      -0.1245
     22  CA        34.1230   28.4870   29.9810 C.3    33  LYS33       0.1561
     23  C         35.6030   28.1710   30.1440 C.2    33  LYS33       0.2260
     24  O         36.4490   29.0470   30.0280 O.2    33  LYS33      -0.2867
     25  CB        33.8540   29.0620   28.5910 C.3    33  LYS33       0.0271
     26  CG        34.0880   28.0680   27.4610 C.3    33  LYS33       0.0035
     27  CD        33.7730   28.6880   26.1060 C.3    33  LYS33       0.0206
     28  CE        33.6020   27.6210   25.0310 C.3    33  LYS33       0.1093
     29  NZ        32.3430   26.8250   25.1850 N.3    33  LYS33      -0.1314
     30  N         26.3670   37.6780   23.4540 N.3    56  VAL56      -0.1245
     31  CA        26.6390   37.3040   24.8420 C.3    56  VAL56       0.1561
     32  C         27.9110   38.0130   25.2920 C.2    56  VAL56       0.2260
     33  O         28.9930   37.7830   24.7490 O.2    56  VAL56      -0.2867
     34  CB        26.8180   35.7690   25.0250 C.3    56  VAL56       0.0252
     35  CG1       27.1570   35.4430   26.4830 C.3    56  VAL56       0.0019
     36  CG2       25.5490   35.0400   24.6260 C.3    56  VAL56       0.0019
     37  N         31.5960   34.7660   30.9750 N.3    72  PHE72      -0.1227
     38  CA        30.4970   35.3140   30.1780 C.3    72  PHE72       0.1736
     39  C         29.2700   35.6030   31.0230 C.2    72  PHE72       0.2595
     40  O         29.1000   35.0520   32.1080 O.2    72  PHE72      -0.2718
     41  CB        30.0590   34.3110   29.0890 C.3    72  PHE72       0.0547
     42  CG        31.0500   34.1280   27.9800 C.ar   72  PHE72      -0.0202
     43  CD1       31.1440   35.0630   26.9530 C.ar   72  PHE72      -0.0042
     44  CD2       31.8910   33.0210   27.9600 C.ar   72  PHE72      -0.0042
     45  CE1       32.0600   34.8980   25.9290 C.ar   72  PHE72      -0.0003
     46  CE2       32.8090   32.8470   26.9370 C.ar   72  PHE72      -0.0003
     47  CZ        32.8960   33.7860   25.9190 C.ar   72  PHE72      -0.0000
     48  N         28.3920   36.4480   30.4960 N.am   73  GLU73      -0.1965
     49  CA        27.1430   36.7240   31.1780 C.3    73  GLU73       0.1733
     50  C         26.3590   35.4060   31.0490 C.2    73  GLU73       0.2616
     51  O         26.5120   34.6700   30.0650 O.2    73  GLU73      -0.2715
     52  CB        26.3860   37.8750   30.5000 C.3    73  GLU73       0.0429
     53  CG        26.0120   37.6250   29.0550 C.3    73  GLU73       0.1163
     54  CD        24.9070   38.5420   28.5570 C.2    73  GLU73       0.3649
     55  OE1       23.8800   38.6870   29.2540 O.co2  73  GLU73      -0.2457
     56  OE2       25.0530   39.1000   27.4530 O.co2  73  GLU73      -0.2457
     57  N         25.5470   35.1010   32.0510 N.am   74  PHE74      -0.1960
     58  CA        24.7690   33.8750   32.0660 C.3    74  PHE74       0.1771
     59  C         23.3550   34.0390   31.5380 C.2    74  PHE74       0.2619
     60  O         22.6600   34.9850   31.8840 O.2    74  PHE74      -0.2715
     61  CB        24.7160   33.3460   33.4940 C.3    74  PHE74       0.0574
     62  CG        23.8860   32.1160   33.6560 C.ar   74  PHE74      -0.0200
     63  CD1       24.4280   30.8610   33.4080 C.ar   74  PHE74      -0.0042
     64  CD2       22.5670   32.2060   34.0710 C.ar   74  PHE74      -0.0042
     65  CE1       23.6660   29.7030   33.5710 C.ar   74  PHE74      -0.0003
     66  CE2       21.7950   31.0540   34.2380 C.ar   74  PHE74      -0.0003
     67  CZ        22.3470   29.8010   33.9870 C.ar   74  PHE74      -0.0000
     68  N         22.9490   33.1270   30.6650 N.am   75  LEU75      -0.1963
     69  CA        21.5940   33.1320   30.1280 C.3    75  LEU75       0.1728
     70  C         21.0230   31.7790   30.5190 C.2    75  LEU75       0.2616
     71  O         21.7430   30.7910   30.5370 O.2    75  LEU75      -0.2715
     72  CB        21.5750   33.3580   28.6180 C.3    75  LEU75       0.0311
     73  CG        21.7900   34.8250   28.2360 C.3    75  LEU75       0.0022
     74  CD1       23.2520   35.0530   27.9440 C.3    75  LEU75       0.0001
     75  CD2       20.9540   35.1900   27.0200 C.3    75  LEU75       0.0001
     76  N         19.7380   31.7360   30.8470 N.am   76  HIS76      -0.1959
     77  CA        19.1160   30.5050   31.3280 C.3    76  HIS76       0.1787
     78  C         18.7940   29.3490   30.4000 C.2    76  HIS76       0.2620
     79  O         18.5340   28.2470   30.8840 O.2    76  HIS76      -0.2715
     80  CB        17.8880   30.8400   32.1710 C.3    76  HIS76       0.0785
     81  CG        18.2180   31.4900   33.4790 C.ar   76  HIS76       0.0821
     82  ND1       18.4410   32.8460   33.6040 N.ar   76  HIS76      -0.2267
     83  CD2       18.3540   30.9720   34.7230 C.ar   76  HIS76       0.1154
     84  CE1       18.6970   33.1340   34.8670 C.ar   76  HIS76       0.1986
     85  NE2       18.6500   32.0140   35.5690 N.ar   76  HIS76      -0.2212
     86  N         18.8520   29.5620   29.0880 N.am   77  GLN77      -0.1963
     87  CA        18.5220   28.4910   28.1520 C.3    77  GLN77       0.1733
     88  C         19.0360   28.7650   26.7470 C.2    77  GLN77       0.2616
     89  O         19.2570   29.9170   26.3800 O.2    77  GLN77      -0.2715
     90  CB        16.9940   28.3250   28.1110 C.3    77  GLN77       0.0408
     91  CG        16.4960   27.0580   27.4190 C.3    77  GLN77       0.0908
     92  CD        14.9950   26.8880   27.5460 C.2    77  GLN77       0.2608
     93  OE1       14.2800   26.8160   26.5490 O.2    77  GLN77      -0.2717
     94  NE2       14.5100   26.8360   28.7800 N.am   77  GLN77      -0.0878
     95  N         19.2460   27.7000   25.9730 N.am   78  ASP78      -0.1971
     96  CA        19.6910   27.8390   24.5870 C.3    78  ASP78       0.1709
     97  C         18.5080   27.5600   23.6540 C.2    78  ASP78       0.2293
     98  O         17.5020   26.9740   24.0780 O.2    78  ASP78      -0.2864
     99  CB        20.8830   26.9170   24.2760 C.3    78  ASP78       0.1436
    100  CG        20.5480   25.4310   24.3810 C.2    78  ASP78       0.3671
    101  OD1       19.3650   25.0530   24.3870 O.co2  78  ASP78      -0.2456
    102  OD2       21.4870   24.6180   24.4600 O.co2  78  ASP78      -0.2456
    103  N         22.6100   25.6560   19.6720 N.3   123  GLN123     -0.1245
    104  CA        23.2450   25.5900   20.9980 C.3   123  GLN123      0.1566
    105  C         24.0210   26.8500   21.3740 C.2   123  GLN123      0.2260
    106  O         24.3170   27.0470   22.5470 O.2   123  GLN123     -0.2867
    107  CB        24.1770   24.3780   21.1440 C.3   123  GLN123      0.0367
    108  CG        23.5610   23.0320   20.8380 C.3   123  GLN123      0.0905
    109  CD        23.8090   22.6040   19.3970 C.2   123  GLN123      0.2608
    110  OE1       23.1300   23.0580   18.4630 O.2   123  GLN123     -0.2717
    111  NE2       24.8050   21.7380   19.2070 N.am  123  GLN123     -0.0878
    112  N         21.5390   31.8520   22.8170 N.3   126  LEU126     -0.1245
    113  CA        21.0040   31.8790   24.1730 C.3   126  LEU126      0.1561
    114  C         19.8620   32.8650   24.3480 C.2   126  LEU126      0.2260
    115  O         19.9250   34.0020   23.8800 O.2   126  LEU126     -0.2867
    116  CB        22.1390   32.1730   25.1580 C.3   126  LEU126      0.0270
    117  CG        23.3040   31.1750   25.0890 C.3   126  LEU126      0.0019
    118  CD1       24.4590   31.6570   25.9280 C.3   126  LEU126      0.0001
    119  CD2       22.8490   29.7980   25.5420 C.3   126  LEU126      0.0001
    120  N         26.3560   33.3760   21.0400 N.3   136  ALA136     -0.1231
    121  CA        27.4430   32.9270   21.9070 C.3   136  ALA136      0.1694
    122  C         28.5760   32.3360   21.0710 C.2   136  ALA136      0.2592
    123  O         28.3290   31.7590   20.0190 O.2   136  ALA136     -0.2718
    124  CB        26.9280   31.8860   22.8780 C.3   136  ALA136      0.0304
    125  N         29.8090   32.4470   21.5680 N.am  137  ASP137     -0.1974
    126  CA        31.0130   31.9290   20.8950 C.3   137  ASP137      0.1709
    127  C         31.4400   32.6860   19.6500 C.2   137  ASP137      0.2293
    128  O         32.1230   32.1430   18.7890 O.2   137  ASP137     -0.2864
    129  CB        30.8840   30.4380   20.5840 C.3   137  ASP137      0.1436
    130  CG        30.8200   29.5840   21.8410 C.2   137  ASP137      0.3671
    131  OD1       30.9880   30.1300   22.9580 O.co2 137  ASP137     -0.2456
    132  OD2       30.5990   28.3600   21.7140 O.co2 137  ASP137     -0.2456
@<TRIPOS>BOND
     1   110   109    2
     2   128   127    2
     3   111   109   am
     4   109   108    1
     5   127   126    1
     6   103   104    1
     7   123   122    2
     8   129   126    1
     9   129   130    1
    10   108   107    1
    11   126   125    1
    12   104   107    1
    13   104   105    1
    14   120   121    1
    15   122   125   am
    16   122   121    1
    17   105   106    2
    18   132   130   ar
    19   130   131   ar
    20   121   124    1
    21   112   113    1
    22    30    31    1
    23    97    98    2
    24    97    96    1
    25   115   114    2
    26   113   114    1
    27   113   116    1
    28    99   100    1
    29    99    96    1
    30   100   101   ar
    31   100   102   ar
    32    96    95    1
    33    36    34    1
    34    33    32    2
    35    31    34    1
    36    31    32    1
    37    34    35    1
    38    28    29    1
    39    28    27    1
    40   117   116    1
    41   117   119    1
    42   117   118    1
    43    47    45   ar
    44    47    46   ar
    45    45    43   ar
    46    95    88   am
    47    27    26    1
    48    89    88    2
    49    93    92    2
    50    88    87    1
    51    46    44   ar
    52    43    42   ar
    53    75    73    1
    54    91    92    1
    55    91    90    1
    56    56    54   ar
    57    26    25    1
    58    92    94   am
    59    74    73    1
    60    44    42   ar
    61    42    41    1
    62    90    87    1
    63    87    86    1
    64    73    72    1
    65    15    13    1
    66    54    53    1
    67    54    55   ar
    68    25    22    1
    69    72    69    1
    70    53    52    1
    71    86    78   am
    72    41    38    1
    73    13    14    1
    74    13    10    1
    75    22    23    1
    76    22    21    1
    77    24    23    2
    78    51    50    2
    79    69    70    1
    80    69    68    1
    81    38    37    1
    82    38    39    1
    83     9    10    1
    84    78    79    2
    85    78    77    1
    86     7     5    1
    87    48    39   am
    88    48    49    1
    89    52    49    1
    90    70    71    2
    91    70    76   am
    92    68    59   am
    93    10    11    1
    94    76    77    1
    95     4     3    2
    96    39    40    2
    97    50    49    1
    98    50    57   am
    99     3     2    1
   100    77    80    1
   101    20    17    1
   102     5     2    1
   103     5     6    1
   104    59    60    2
   105    59    58    1
   106    19    18    2
   107    11    12    2
   108    57    58    1
   109    58    61    1
   110    80    81    1
   111     2     1    1
   112     6     8    1
   113    18    17    1
   114    17    16    1
   115    63    65   ar
   116    63    62   ar
   117    81    82   ar
   118    81    83   ar
   119    61    62    1
   120    65    67   ar
   121    82    84   ar
   122    62    64   ar
   123    67    66   ar
   124    64    66   ar
   125    83    85   ar
   126    84    85   ar
