@<TRIPOS>MOLECULE
tmp/1cl2B00.pdb
 157 151 0 0 0
SMALL
GASTEIGER

@<TRIPOS>ATOM
      1  N         -1.6660   46.0060   32.6350 N.3    82  CYS82      -0.1221
      2  CA        -2.6120   45.8910   31.5160 C.3    82  CYS82       0.1808
      3  C         -2.3250   46.9710   30.4890 C.2    82  CYS82       0.2602
      4  O         -1.4640   47.8120   30.7010 O.2    82  CYS82      -0.2717
      5  CB        -4.0660   46.0080   31.9980 C.3    82  CYS82       0.0970
      6  SG        -4.5650   47.6020   32.7770 S.3    82  CYS82      -0.0800
      7  N         -3.0610   46.9650   29.3870 N.am   83  GLY83      -0.1942
      8  CA        -2.8390   47.9530   28.3420 C.3    83  GLY83       0.2014
      9  C         -3.1760   49.3790   28.7640 C.2    83  GLY83       0.2638
     10  O         -2.4660   50.3100   28.4080 O.2    83  GLY83      -0.2714
     11  N         -4.2620   49.5550   29.5130 N.am   84  ALA84      -0.1977
     12  CA        -4.6460   50.8800   29.9710 C.3    84  ALA84       0.1597
     13  C         -3.5830   51.4490   30.9270 C.2    84  ALA84       0.2287
     14  O         -3.3040   52.6560   30.9200 O.2    84  ALA84      -0.2864
     15  CB        -6.0000   50.8410   30.6180 C.3    84  ALA84       0.0319
     16  N         -0.7050   52.8290   28.7300 N.3    87  VAL87      -0.1245
     17  CA        -1.0210   54.0970   28.1100 C.3    87  VAL87       0.1561
     18  C         -0.9570   55.2440   29.1340 C.2    87  VAL87       0.2260
     19  O         -0.2100   56.2060   28.9410 O.2    87  VAL87      -0.2867
     20  CB        -2.4160   54.0260   27.3850 C.3    87  VAL87       0.0252
     21  CG1       -2.9380   55.4330   27.0700 C.3    87  VAL87       0.0019
     22  CG2       -2.2960   53.2040   26.0790 C.3    87  VAL87       0.0019
     23  N         -8.5050   54.8820   21.8600 N.3   108  TYR108     -0.1241
     24  CA        -9.3100   54.0070   22.7030 C.3   108  TYR108      0.1605
     25  C         -9.8590   54.9180   23.8100 C.2   108  TYR108      0.2264
     26  O         -9.1140   55.6830   24.4270 O.2   108  TYR108     -0.2867
     27  CB        -8.3990   52.9020   23.2400 C.3   108  TYR108      0.0534
     28  CG        -8.9940   52.0090   24.2670 C.ar  108  TYR108     -0.0201
     29  CD1      -10.1680   51.2980   24.0210 C.ar  108  TYR108     -0.0009
     30  CD2       -8.3760   51.8690   25.4980 C.ar  108  TYR108     -0.0009
     31  CE1      -10.7150   50.4750   24.9850 C.ar  108  TYR108      0.0417
     32  CE2       -8.9120   51.0450   26.4700 C.ar  108  TYR108      0.0417
     33  CZ       -10.0780   50.3600   26.2130 C.ar  108  TYR108      0.1957
     34  OH       -10.6290   49.6410   27.2380 O.3   108  TYR108     -0.2866
     35  N        -10.7810   54.8650   27.0720 N.3   110  PRO110     -0.2116
     36  CA       -10.1450   55.0980   28.3670 C.3   110  PRO110      0.1372
     37  C         -8.8750   55.9150   28.2400 C.2   110  PRO110      0.2244
     38  O         -8.4900   56.5880   29.1890 O.2   110  PRO110     -0.2868
     39  CB        -9.8750   53.6890   28.8640 C.3   110  PRO110      0.0268
     40  CG       -11.0770   52.9790   28.4090 C.3   110  PRO110      0.0207
     41  CD       -11.1540   53.4440   26.9510 C.3   110  PRO110      0.0892
     42  N         -2.8420   56.2740   17.2360 N.3   151  GLU151     -0.1245
     43  CA        -3.4630   54.9680   17.3920 C.3   151  GLU151      0.1567
     44  C         -3.9930   54.5780   16.0150 C.2   151  GLU151      0.2260
     45  O         -5.0410   55.0530   15.5820 O.2   151  GLU151     -0.2867
     46  CB        -4.5740   54.9560   18.4260 C.3   151  GLU151      0.0388
     47  CG        -5.1360   53.5490   18.5750 C.3   151  GLU151      0.1160
     48  CD        -6.0870   53.4040   19.7100 C.2   151  GLU151      0.3649
     49  OE1       -5.9920   54.1850   20.6880 O.co2 151  GLU151     -0.2457
     50  OE2       -6.9210   52.4770   19.6230 O.co2 151  GLU151     -0.2457
     51  N         -9.5190   52.9610   17.2040 N.3   155  SER155     -0.1217
     52  CA       -10.4470   52.0880   17.9140 C.3   155  SER155      0.1889
     53  C        -11.8430   52.1480   17.3240 C.2   155  SER155      0.2288
     54  O        -12.3840   53.2400   17.0780 O.2   155  SER155     -0.2866
     55  CB       -10.5640   52.4790   19.4040 C.3   155  SER155      0.2089
     56  OG        -9.3770   52.2040   20.1320 O.3   155  SER155     -0.2183
     57  N         -0.3280   53.6230   20.1090 N.3   182  ASP182     -0.1239
     58  CA        -0.9520   52.4290   20.6450 C.3   182  ASP182      0.1674
     59  C         -0.9630   51.4960   19.4250 C.2   182  ASP182      0.2266
     60  O         -1.7900   51.6450   18.5400 O.2   182  ASP182     -0.2867
     61  CB        -2.3690   52.7080   21.1340 C.3   182  ASP182      0.1410
     62  CG        -3.0090   51.4830   21.7840 C.2   182  ASP182      0.3668
     63  OD1       -2.7440   50.3720   21.3280 O.co2 182  ASP182     -0.2456
     64  OD2       -3.7980   51.6180   22.7360 O.co2 182  ASP182     -0.2456
     65  N         -1.4570   48.1540   19.3090 N.3   184  THR184     -0.1203
     66  CA        -2.0810   46.8700   19.6700 C.3   184  THR184      0.1994
     67  C         -2.6360   46.0390   18.5020 C.2   184  THR184      0.2617
     68  O         -2.3790   44.8350   18.4190 O.2   184  THR184     -0.2717
     69  CB        -3.1800   47.0740   20.7560 C.3   184  THR184      0.1784
     70  OG1       -2.5810   47.6650   21.9000 O.3   184  THR184     -0.2211
     71  CG2       -3.7850   45.7630   21.2090 C.3   184  THR184      0.0376
     72  N         -3.3490   46.6840   17.5820 N.am  185  TRP185     -0.1975
     73  CA        -3.9530   46.0010   16.4380 C.3   185  TRP185      0.1640
     74  C         -2.9430   45.2370   15.5750 C.2   185  TRP185      0.2290
     75  O         -3.2280   44.1300   15.0970 O.2   185  TRP185     -0.2864
     76  CB        -4.7330   47.0230   15.6170 C.3   185  TRP185      0.0576
     77  CG        -5.5500   46.4720   14.5110 C.ar  185  TRP185      0.0006
     78  CD1       -6.8740   46.1470   14.5560 C.ar  185  TRP185      0.0946
     79  CD2       -5.1170   46.2210   13.1620 C.ar  185  TRP185      0.0152
     80  NE1       -7.2940   45.7180   13.3230 N.ar  185  TRP185     -0.2442
     81  CE2       -6.2340   45.7530   12.4490 C.ar  185  TRP185      0.0810
     82  CE3       -3.8930   46.3480   12.4920 C.ar  185  TRP185      0.0012
     83  CZ2       -6.1680   45.4110   11.0900 C.ar  185  TRP185      0.0191
     84  CZ3       -3.8230   46.0050   11.1420 C.ar  185  TRP185      0.0001
     85  CH2       -4.9540   45.5460   10.4590 C.ar  185  TRP185      0.0015
     86  N         -1.4700   46.5900   24.2460 N.3   204  ALA204     -0.1245
     87  CA        -2.2400   45.9510   25.2910 C.3   204  ALA204      0.1562
     88  C         -1.8890   44.4970   24.8730 C.2   204  ALA204      0.2260
     89  O         -2.5160   43.9310   23.9730 O.2   204  ALA204     -0.2867
     90  CB        -3.7340   46.2280   25.1180 C.3   204  ALA204      0.0290
     91  N         -2.4810   42.0920   26.1590 N.3   206  THR206     -0.1203
     92  CA        -3.6940   41.4020   26.5590 C.3   206  THR206      0.1994
     93  C         -4.3590   40.7900   25.3170 C.2   206  THR206      0.2617
     94  O         -4.9590   39.7260   25.3850 O.2   206  THR206     -0.2717
     95  CB        -4.6790   42.4710   27.1710 C.3   206  THR206      0.1784
     96  OG1       -4.0550   43.0860   28.3020 O.3   206  THR206     -0.2211
     97  CG2       -6.0160   41.8790   27.5780 C.3   206  THR206      0.0376
     98  N         -4.2820   41.4920   24.1880 N.am  207  LYS207     -0.1979
     99  CA        -4.9030   41.0300   22.9490 C.3   207  LYS207      0.1596
    100  C         -4.1480   39.8920   22.2480 C.2   207  LYS207      0.2287
    101  O         -4.1080   38.7790   22.7550 O.2   207  LYS207     -0.2864
    102  CB        -5.1280   42.2020   21.9770 C.3   207  LYS207      0.0298
    103  CG        -5.6220   43.4930   22.6200 C.3   207  LYS207      0.0038
    104  CD        -6.8610   43.3070   23.3890 C.3   207  LYS207      0.0206
    105  CE        -7.2760   44.6040   24.0430 C.3   207  LYS207      0.1093
    106  NZ        -8.2770   44.3880   25.1110 N.3   207  LYS207     -0.1314
    107  N         -3.7500   39.6810   31.3750 N.3   216  MET216     -0.1245
    108  CA        -3.7140   41.0960   31.0500 C.3   216  MET216      0.1570
    109  C         -2.3370   41.6200   31.3060 C.2   216  MET216      0.2261
    110  O         -1.7020   41.2200   32.2650 O.2   216  MET216     -0.2867
    111  CB        -4.7580   41.8420   31.8500 C.3   216  MET216      0.0387
    112  CG        -6.1140   41.3220   31.5270 C.3   216  MET216      0.0595
    113  SD        -7.4360   42.2390   32.1650 S.3   216  MET216     -0.1393
    114  CE        -7.4260   43.6520   31.0700 C.3   216  MET216      0.0692
    115  N        -16.0880   42.1530   25.6900 N.3   335  TYR335     -0.1227
    116  CA       -15.0970   43.1880   25.4630 C.3   335  TYR335      0.1736
    117  C        -13.7590   42.5580   25.1340 C.2   335  TYR335      0.2596
    118  O        -13.5620   41.3670   25.3320 O.2   335  TYR335     -0.2718
    119  CB       -14.9910   44.1010   26.6770 C.3   335  TYR335      0.0548
    120  CG       -16.1450   45.0640   26.6930 C.ar  335  TYR335     -0.0200
    121  CD1      -16.1970   46.1230   25.7810 C.ar  335  TYR335     -0.0009
    122  CD2      -17.2230   44.8710   27.5390 C.ar  335  TYR335     -0.0009
    123  CE1      -17.2940   46.9460   25.7080 C.ar  335  TYR335      0.0417
    124  CE2      -18.3280   45.6920   27.4760 C.ar  335  TYR335      0.0417
    125  CZ       -18.3590   46.7290   26.5580 C.ar  335  TYR335      0.1957
    126  OH       -19.4720   47.5390   26.4840 O.3   335  TYR335     -0.2866
    127  N        -12.8190   43.3820   24.7200 N.am  336  SER336     -0.1938
    128  CA       -11.5170   42.9190   24.3130 C.3   336  SER336      0.2055
    129  C        -11.6020   42.1210   23.0130 C.2   336  SER336      0.2643
    130  O        -12.6460   42.0340   22.3670 O.2   336  SER336     -0.2714
    131  CB       -10.8390   42.1140   25.4070 C.3   336  SER336      0.2130
    132  OG        -9.4430   42.0690   25.1720 O.3   336  SER336     -0.2179
    133  N        -10.4660   41.5950   22.5950 N.am  337  TRP337     -0.1973
    134  CA       -10.3790   40.8620   21.3530 C.3   337  TRP337      0.1640
    135  C         -8.9650   40.2980   21.3090 C.2   337  TRP337      0.2290
    136  O         -8.2610   40.3530   22.3140 O.2   337  TRP337     -0.2864
    137  CB       -10.6300   41.8290   20.1770 C.3   337  TRP337      0.0576
    138  CG       -10.0380   43.2210   20.3510 C.ar  337  TRP337      0.0006
    139  CD1      -10.5980   44.2820   21.0330 C.ar  337  TRP337      0.0946
    140  CD2       -8.7920   43.7040   19.8210 C.ar  337  TRP337      0.0152
    141  NE1       -9.7730   45.3850   20.9570 N.ar  337  TRP337     -0.2442
    142  CE2       -8.6660   45.0610   20.2150 C.ar  337  TRP337      0.0810
    143  CE3       -7.7820   43.1320   19.0280 C.ar  337  TRP337      0.0012
    144  CZ2       -7.5680   45.8420   19.8530 C.ar  337  TRP337      0.0191
    145  CZ3       -6.6910   43.9160   18.6630 C.ar  337  TRP337      0.0001
    146  CH2       -6.5980   45.2600   19.0740 C.ar  337  TRP337      0.0015
    147  N        -18.7400   45.8370   15.5280 N.3   369  ARG369     -0.1245
    148  CA       -17.3080   45.5480   15.5740 C.3   369  ARG369      0.1563
    149  C        -17.1620   44.0320   15.7070 C.2   369  ARG369      0.2260
    150  O        -17.7800   43.4110   16.5670 O.2   369  ARG369     -0.2867
    151  CB       -16.6040   46.2380   16.7550 C.3   369  ARG369      0.0307
    152  CG       -15.0710   46.1530   16.6530 C.3   369  ARG369      0.0489
    153  CD       -14.3730   46.7640   17.8440 C.3   369  ARG369      0.2205
    154  NE       -14.6700   46.0550   19.0930 N.pl3 369  ARG369     -0.0865
    155  CZ       -14.0130   46.2410   20.2400 C.cat 369  ARG369      0.5346
    156  NH1      -13.0250   47.1230   20.3010 N.pl3 369  ARG369      0.1354
    157  NH2      -14.3200   45.5190   21.3190 N.pl3 369  ARG369      0.1354
@<TRIPOS>BOND
     1    85    83   ar
     2    85    84   ar
     3    83    81   ar
     4    84    82   ar
     5    81    79   ar
     6    81    80   ar
     7    82    79   ar
     8    79    77   ar
     9    80    78   ar
    10    77    78   ar
    11    77    76    1
    12    75    74    2
    13   147   148    1
    14   148   149    1
    15   148   151    1
    16    74    73    1
    17    45    44    2
    18    76    73    1
    19   149   150    2
    20    44    43    1
    21    73    72    1
    22   152   151    1
    23   152   153    1
    24    54    53    2
    25    51    52    1
    26    42    43    1
    27    53    52    1
    28    43    46    1
    29    72    67   am
    30   153   154    1
    31    52    55    1
    32    68    67    2
    33    46    47    1
    34    67    66    1
    35    60    59    2
    36    47    48    1
    37   145   143   ar
    38   145   146   ar
    39   143   140   ar
    40   146   144   ar
    41   154   155    2
    42    65    66    1
    43    55    56    1
    44    59    58    1
    45    50    48   ar
    46    66    69    1
    47    48    49   ar
    48   140   142   ar
    49   140   138   ar
    50   144   142   ar
    51    57    58    1
    52   137   138    1
    53   137   134    1
    54   142   141   ar
    55   155   156    1
    56   155   157    1
    57   138   139   ar
    58    58    61    1
    59    69    71    1
    60    69    70    1
    61   141   139   ar
    62    61    62    1
    63   135   134    1
    64   135   136    2
    65    63    62   ar
    66   134   133    1
    67    62    64   ar
    68    23    24    1
    69   102   103    1
    70   102    99    1
    71   100   101    2
    72   100    99    1
    73   130   129    2
    74   133   129   am
    75   103   104    1
    76    24    27    1
    77    24    25    1
    78    99    98    1
    79   129   128    1
    80    27    28    1
    81   104   105    1
    82    25    26    2
    83    89    88    2
    84    29    28   ar
    85    29    31   ar
    86   105   106    1
    87    98    93   am
    88    86    87    1
    89    28    30   ar
    90   128   127    1
    91   128   131    1
    92   127   117   am
    93    88    87    1
    94    31    33   ar
    95    90    87    1
    96   117   118    2
    97   117   116    1
    98   132   131    1
    99    93    94    2
   100    93    92    1
   101   116   115    1
   102   116   119    1
   103    30    32   ar
   104   123   121   ar
   105   123   125   ar
   106   121   120   ar
   107    22    20    1
   108    91    92    1
   109    33    32   ar
   110    33    34    1
   111   126   125    1
   112   125   124   ar
   113    92    95    1
   114   119   120    1
   115   120   122   ar
   116    41    35    1
   117    41    40    1
   118    21    20    1
   119    35    36    1
   120    95    97    1
   121    95    96    1
   122    20    17    1
   123   124   122   ar
   124    17    16    1
   125    17    18    1
   126    37    36    1
   127    37    38    2
   128     8     9    1
   129     8     7    1
   130    36    39    1
   131    10     9    2
   132    40    39    1
   133     9    11   am
   134    19    18    2
   135     7     3   am
   136    11    12    1
   137    12    15    1
   138    12    13    1
   139     3     4    2
   140     3     2    1
   141    14    13    2
   142   108   109    1
   143   108   107    1
   144   108   111    1
   145   114   113    1
   146   109   110    2
   147     2     5    1
   148     2     1    1
   149   112   111    1
   150   112   113    1
   151     5     6    1
