@<TRIPOS>MOLECULE
tmp/1claA00.pdb
 136 126 0 0 0
SMALL
GASTEIGER

@<TRIPOS>ATOM
      1  N          7.5610   21.0050   18.2960 N.3    86  GLN86      -0.1245
      2  CA         6.2870   21.3790   17.6620 C.3    86  GLN86       0.1566
      3  C          5.3220   20.6620   18.6330 C.2    86  GLN86       0.2260
      4  O          5.4830   19.4570   18.8190 O.2    86  GLN86      -0.2867
      5  CB         6.1200   21.0730   16.2160 C.3    86  GLN86       0.0367
      6  CG         4.7540   21.4900   15.6930 C.3    86  GLN86       0.0905
      7  CD         4.5730   20.9860   14.2770 C.2    86  GLN86       0.2608
      8  OE1        4.4770   19.7840   14.0250 O.2    86  GLN86      -0.2717
      9  NE2        4.5610   21.9610   13.4280 N.am   86  GLN86      -0.0878
     10  N          1.1840   20.5400   20.5260 N.3    88  THR88      -0.1218
     11  CA        -0.2350   20.8470   20.3350 C.3    88  THR88       0.1862
     12  C         -0.7440   21.8140   21.4110 C.2    88  THR88       0.2287
     13  O         -0.3390   21.8120   22.5990 O.2    88  THR88      -0.2866
     14  CB        -1.1350   19.5860   20.2980 C.3    88  THR88       0.1770
     15  OG1       -0.9690   19.0520   21.6560 O.3    88  THR88      -0.2211
     16  CG2       -0.7970   18.5060   19.2640 C.3    88  THR88       0.0375
     17  N         -7.5890   21.6340   18.1200 N.3    97  PHE97      -0.1241
     18  CA        -6.1790   21.8830   18.4290 C.3    97  PHE97       0.1605
     19  C         -5.4880   22.5110   17.2170 C.2    97  PHE97       0.2264
     20  O         -5.9570   22.4000   16.0770 O.2    97  PHE97      -0.2867
     21  CB        -5.4710   20.5890   18.8660 C.3    97  PHE97       0.0534
     22  CG        -5.1620   19.5730   17.8160 C.ar   97  PHE97      -0.0203
     23  CD1       -3.8910   19.5550   17.2240 C.ar   97  PHE97      -0.0042
     24  CD2       -6.1350   18.6760   17.3920 C.ar   97  PHE97      -0.0042
     25  CE1       -3.5820   18.6440   16.2270 C.ar   97  PHE97      -0.0003
     26  CE2       -5.8300   17.7580   16.3850 C.ar   97  PHE97      -0.0003
     27  CZ        -4.5480   17.7060   15.8410 C.ar   97  PHE97      -0.0000
     28  N         -1.1260   23.1940   16.1620 N.3    99  ALA99      -0.1245
     29  CA         0.2040   22.6810   16.3650 C.3    99  ALA99       0.1562
     30  C          1.0760   23.9490   16.2190 C.2    99  ALA99       0.2260
     31  O          1.0290   24.5840   15.1590 O.2    99  ALA99      -0.2867
     32  CB         0.6880   21.5050   15.4660 C.3    99  ALA99       0.0290
     33  N         -4.8900   24.8150   11.6790 N.3   128  LEU128     -0.1231
     34  CA        -4.1790   23.6350   12.1470 C.3   128  LEU128      0.1693
     35  C         -2.7070   23.9770   12.3490 C.2   128  LEU128      0.2592
     36  O         -2.0870   23.5280   13.3500 O.2   128  LEU128     -0.2718
     37  CB        -4.3340   22.4940   11.1460 C.3   128  LEU128      0.0284
     38  CG        -3.5810   21.2230   11.5520 C.3   128  LEU128      0.0019
     39  CD1       -3.8380   20.7950   13.0010 C.3   128  LEU128      0.0001
     40  CD2       -3.9560   20.0210   10.6850 C.3   128  LEU128      0.0001
     41  N         -2.0660   24.7150   11.5040 N.am  129  PHE129     -0.1976
     42  CA        -0.7000   25.2170   11.4640 C.3   129  PHE129      0.1639
     43  C         -0.7380   26.7560   11.2200 C.2   129  PHE129      0.2290
     44  O         -0.4850   27.1700   10.0690 O.2   129  PHE129     -0.2864
     45  CB         0.2070   24.5790   10.3980 C.3   129  PHE129      0.0560
     46  CG         0.2150   23.0740   10.3900 C.ar  129  PHE129     -0.0200
     47  CD1       -0.5150   22.3690    9.4220 C.ar  129  PHE129     -0.0042
     48  CD2        0.9150   22.3450   11.3410 C.ar  129  PHE129     -0.0042
     49  CE1       -0.5550   21.0120    9.4110 C.ar  129  PHE129     -0.0003
     50  CE2        0.9000   20.9740   11.3180 C.ar  129  PHE129     -0.0003
     51  CZ         0.1360   20.2660   10.3800 C.ar  129  PHE129     -0.0000
     52  N          7.8370   16.1220   17.5250 N.3   140  ASN140     -0.1240
     53  CA         6.4130   16.3280   17.8290 C.3   140  ASN140      0.1653
     54  C          6.2090   15.8770   19.2640 C.2   140  ASN140      0.2266
     55  O          6.7380   14.8510   19.6430 O.2   140  ASN140     -0.2867
     56  CB         5.3880   15.6760   16.9850 C.3   140  ASN140      0.1155
     57  CG         5.7900   15.9300   15.5170 C.2   140  ASN140      0.2627
     58  OD1        6.7650   15.2470   15.1500 O.2   140  ASN140     -0.2716
     59  ND2        5.0880   16.9080   14.9700 N.am  140  ASN140     -0.0877
     60  N          2.8620   16.1230   21.9440 N.3   142  ALA142     -0.1245
     61  CA         1.4060   16.2380   22.0820 C.3   142  ALA142      0.1562
     62  C          1.1270   15.9290   23.5400 C.2   142  ALA142      0.2260
     63  O          2.0180   15.3530   24.2100 O.2   142  ALA142     -0.2867
     64  CB         0.7150   15.2900   21.1510 C.3   142  ALA142      0.0290
     65  N         -2.3690   14.8840   26.0930 N.3   144  LEU144     -0.1245
     66  CA        -3.7200   14.4770   26.4090 C.3   144  LEU144      0.1561
     67  C         -3.8880   14.6990   27.9200 C.2   144  LEU144      0.2260
     68  O         -3.8750   13.7390   28.6800 O.2   144  LEU144     -0.2867
     69  CB        -4.0580   13.0670   25.9600 C.3   144  LEU144      0.0270
     70  CG        -4.4000   12.7990   24.5170 C.3   144  LEU144      0.0019
     71  CD1       -3.1200   12.8020   23.6860 C.3   144  LEU144      0.0001
     72  CD2       -5.0490   11.4230   24.3330 C.3   144  LEU144      0.0001
     73  N         -0.4060    4.4560   24.3670 N.3   152  PHE152     -0.1241
     74  CA        -0.9000    5.2820   23.2520 C.3   152  PHE152      0.1605
     75  C         -0.1730    4.8030   22.0080 C.2   152  PHE152      0.2264
     76  O          1.0460    4.6080   22.1520 O.2   152  PHE152     -0.2867
     77  CB        -0.6580    6.7640   23.4780 C.3   152  PHE152      0.0534
     78  CG        -1.1330    7.6800   22.4010 C.ar  152  PHE152     -0.0203
     79  CD1       -2.4280    8.2090   22.4880 C.ar  152  PHE152     -0.0042
     80  CD2       -0.2870    7.9990   21.3370 C.ar  152  PHE152     -0.0042
     81  CE1       -2.9050    9.1240   21.5420 C.ar  152  PHE152     -0.0003
     82  CE2       -0.7360    8.9410   20.3640 C.ar  152  PHE152     -0.0003
     83  CZ        -2.0470    9.4740   20.4660 C.ar  152  PHE152     -0.0000
     84  N         -0.0310    5.5880   17.6170 N.3   154  LEU154     -0.1245
     85  CA        -0.4810    6.2230   16.3510 C.3   154  LEU154      0.1561
     86  C         -0.4020    5.1490   15.2570 C.2   154  LEU154      0.2260
     87  O          0.6670    4.5340   15.1110 O.2   154  LEU154     -0.2867
     88  CB         0.3100    7.4310   16.0080 C.3   154  LEU154      0.0270
     89  CG        -0.1550    8.6840   16.7860 C.3   154  LEU154      0.0019
     90  CD1        0.9820    9.6910   16.6550 C.3   154  LEU154      0.0001
     91  CD2       -1.4070    9.1670   16.0700 C.3   154  LEU154      0.0001
     92  N         -0.4240    4.7810   11.5860 N.3   156  VAL156     -0.1245
     93  CA        -0.2140    5.6310   10.3950 C.3   156  VAL156      0.1561
     94  C         -0.1830    4.7990    9.1010 C.2   156  VAL156      0.2260
     95  O          0.7550    4.0280    8.9490 O.2   156  VAL156     -0.2867
     96  CB         1.1280    6.4370   10.4630 C.3   156  VAL156      0.0252
     97  CG1        1.5810    6.9550    9.0980 C.3   156  VAL156      0.0019
     98  CG2        1.0280    7.6150   11.3980 C.3   156  VAL156      0.0019
     99  N          4.4260    5.8060    6.6120 N.3   159  PHE159     -0.1241
    100  CA         5.4450    6.5220    7.4020 C.3   159  PHE159      0.1605
    101  C          6.8140    6.5060    6.7460 C.2   159  PHE159      0.2264
    102  O          7.8230    6.8380    7.4370 O.2   159  PHE159     -0.2867
    103  CB         5.4730    6.0480    8.8740 C.3   159  PHE159      0.0534
    104  CG         5.6550    4.5480    9.1170 C.ar  159  PHE159     -0.0203
    105  CD1        6.9420    4.0170    9.2160 C.ar  159  PHE159     -0.0042
    106  CD2        4.5380    3.7130    9.2760 C.ar  159  PHE159     -0.0042
    107  CE1        7.1210    2.6530    9.4620 C.ar  159  PHE159     -0.0003
    108  CE2        4.7180    2.3460    9.5190 C.ar  159  PHE159     -0.0003
    109  CZ         6.0100    1.8180    9.6120 C.ar  159  PHE159     -0.0000
    110  N         10.1460    9.1490    7.6770 N.3   162  TYR162     -0.1241
    111  CA         9.8570   10.2600    8.6060 C.3   162  TYR162      0.1605
    112  C         10.4880    9.7110    9.8680 C.2   162  TYR162      0.2264
    113  O         10.0850    8.6120   10.3190 O.2   162  TYR162     -0.2867
    114  CB         8.3700   10.5580    8.6500 C.3   162  TYR162      0.0534
    115  CG         8.1030   11.6950    9.6400 C.ar  162  TYR162     -0.0201
    116  CD1        8.4310   13.0180    9.3100 C.ar  162  TYR162     -0.0009
    117  CD2        7.6000   11.3960   10.9140 C.ar  162  TYR162     -0.0009
    118  CE1        8.1990   14.0410   10.2290 C.ar  162  TYR162      0.0417
    119  CE2        7.3840   12.4080   11.8230 C.ar  162  TYR162      0.0417
    120  CZ         7.7040   13.7140   11.4760 C.ar  162  TYR162      0.1957
    121  OH         7.4840   14.6820   12.4000 O.3   162  TYR162     -0.2866
    122  N          7.9640   10.9630   17.8670 N.3   166  ILE166     -0.1245
    123  CA         6.6140   11.4140   18.2020 C.3   166  ILE166      0.1561
    124  C          6.5020   11.1910   19.7160 C.2   166  ILE166      0.2260
    125  O          6.7130   10.0560   20.1560 O.2   166  ILE166     -0.2867
    126  CB         5.4920   10.7070   17.3800 C.3   166  ILE166      0.0252
    127  CG1        5.7090   10.9160   15.8540 C.3   166  ILE166      0.0019
    128  CG2        4.0800   11.2300   17.8720 C.3   166  ILE166      0.0019
    129  CD1        5.0480    9.9240   14.9170 C.3   166  ILE166      0.0001
    130  N          4.0780   11.7000   23.2500 N.3   168  THR168     -0.1218
    131  CA         2.7250   12.0650   23.6880 C.3   168  THR168      0.1862
    132  C          2.6520   11.8550   25.2200 C.2   168  THR168      0.2287
    133  O          3.0430   10.8040   25.7130 O.2   168  THR168     -0.2866
    134  CB         1.5980   11.2470   23.0610 C.3   168  THR168      0.1770
    135  OG1        1.6580   11.2860   21.5650 O.3   168  THR168     -0.2211
    136  CG2        0.1370   11.5000   23.3880 C.3   168  THR168      0.0375
@<TRIPOS>BOND
     1    99   100    1
     2   101   100    1
     3   101   102    2
     4   100   103    1
     5   110   111    1
     6   111   114    1
     7   111   112    1
     8   114   115    1
     9   103   104    1
    10    95    94    2
    11    97    96    1
    12    94    93    1
    13   104   105   ar
    14   104   106   ar
    15   105   107   ar
    16   106   108   ar
    17   116   115   ar
    18   116   118   ar
    19    49    47   ar
    20    49    51   ar
    21    47    46   ar
    22   107   109   ar
    23   108   109   ar
    24   115   117   ar
    25   112   113    2
    26    44    43    2
    27   118   120   ar
    28    51    50   ar
    29    46    45    1
    30    46    48   ar
    31    93    96    1
    32    93    92    1
    33    45    42    1
    34    96    98    1
    35    40    38    1
    36   117   119   ar
    37    37    38    1
    38    37    34    1
    39    43    42    1
    40    50    48   ar
    41    42    41    1
    42   120   119   ar
    43   120   121    1
    44    41    35   am
    45    38    39    1
    46    33    34    1
    47    34    35    1
    48    35    36    2
    49     9     7   am
    50     8     7    2
    51     7     6    1
    52   129   127    1
    53    59    57   am
    54    87    86    2
    55    58    57    2
    56    31    30    2
    57    86    85    1
    58    32    29    1
    59    57    56    1
    60     6     5    1
    61    27    25   ar
    62    27    26   ar
    63   127   126    1
    64    88    85    1
    65    88    89    1
    66    91    89    1
    67    20    19    2
    68    28    29    1
    69     5     2    1
    70    30    29    1
    71    25    23   ar
    72    85    84    1
    73    26    24   ar
    74    90    89    1
    75    56    53    1
    76    19    18    1
    77    23    22   ar
    78   126   128    1
    79   126   123    1
    80    24    22   ar
    81    52    53    1
    82     2     1    1
    83     2     3    1
    84    22    21    1
    85    53    54    1
    86   122   123    1
    87    17    18    1
    88   123   124    1
    89    18    21    1
    90     3     4    2
    91    16    14    1
    92    54    55    2
    93   124   125    2
    94    14    11    1
    95    14    15    1
    96    11    10    1
    97    11    12    1
    98    82    83   ar
    99    82    80   ar
   100    83    81   ar
   101    64    61    1
   102    80    78   ar
   103    12    13    2
   104    81    79   ar
   105   135   134    1
   106    60    61    1
   107    75    76    2
   108    75    74    1
   109    61    62    1
   110    78    79   ar
   111    78    77    1
   112   134   136    1
   113   134   131    1
   114   130   131    1
   115    74    77    1
   116    74    73    1
   117    62    63    2
   118    71    70    1
   119   131   132    1
   120    72    70    1
   121    70    69    1
   122   132   133    2
   123    69    66    1
   124    65    66    1
   125    66    67    1
   126    67    68    2
