@<TRIPOS>MOLECULE
tmp/1cleB02.pdb
 148 145 0 0 0
SMALL
GASTEIGER

@<TRIPOS>ATOM
      1  N         -0.6880   18.4570    6.7940 N.3   122  GLY122     -0.1210
      2  CA        -2.0450   18.0530    6.4730 C.3   122  GLY122      0.1956
      3  C         -2.2360   16.5650    6.7210 C.2   122  GLY122      0.2612
      4  O         -1.2700   15.8300    6.9280 O.2   122  GLY122     -0.2717
      5  N         -3.4840   16.1160    6.6880 N.am  123  GLY123     -0.1942
      6  CA        -3.7850   14.7130    6.9210 C.3   123  GLY123      0.2014
      7  C         -5.2530   14.5350    7.2520 C.2   123  GLY123      0.2639
      8  O         -5.6060   13.7980    8.1660 O.2   123  GLY123     -0.2714
      9  N         -6.1020   15.2650    6.5370 N.am  124  GLY124     -0.1954
     10  CA        -7.5390   15.1920    6.7520 C.3   124  GLY124      0.1869
     11  C         -7.9930   15.6250    8.1270 C.2   124  GLY124      0.2309
     12  O         -9.0920   15.2600    8.5430 O.2   124  GLY124     -0.2863
     13  N         -4.7910   12.7510   10.7880 N.3   127  ILE127     -0.1231
     14  CA        -3.4850   12.0860   10.9180 C.3   127  ILE127      0.1692
     15  C         -2.3910   13.0990   10.5610 C.2   127  ILE127      0.2592
     16  O         -2.6870   14.2510   10.2090 O.2   127  ILE127     -0.2718
     17  CB        -3.3040   10.8400    9.9890 C.3   127  ILE127      0.0266
     18  CG1       -3.2570   11.2750    8.5250 C.3   127  ILE127      0.0019
     19  CG2       -4.3930    9.8110   10.2320 C.3   127  ILE127      0.0020
     20  CD1       -2.9900   10.1710    7.5810 C.3   127  ILE127      0.0001
     21  N         -1.1340   12.6490   10.6650 N.am  128  GLY128     -0.1957
     22  CA         0.0250   13.4720   10.3460 C.3   128  GLY128      0.1869
     23  C          0.8310   14.0430   11.5060 C.2   128  GLY128      0.2309
     24  O          0.3720   14.0600   12.6590 O.2   128  GLY128     -0.2863
     25  N          7.1960   13.5670    9.2640 N.3   132  ILE132     -0.1231
     26  CA         7.2150   13.0310    7.9040 C.3   132  ILE132      0.1692
     27  C          7.2650   14.0610    6.7790 C.2   132  ILE132      0.2592
     28  O          6.9950   13.7380    5.6310 O.2   132  ILE132     -0.2718
     29  CB         6.0110   12.0700    7.6670 C.3   132  ILE132      0.0266
     30  CG1        4.6840   12.8070    7.9110 C.3   132  ILE132      0.0019
     31  CG2        6.1020   10.8650    8.5920 C.3   132  ILE132      0.0020
     32  CD1        3.4480   11.9700    7.6740 C.3   132  ILE132      0.0001
     33  N          7.6020   15.3020    7.1020 N.am  133  PHE133     -0.1976
     34  CA         7.6970   16.3630    6.1020 C.3   133  PHE133      0.1639
     35  C          9.0800   17.0110    6.2580 C.2   133  PHE133      0.2290
     36  O          9.1950   18.1720    6.6690 O.2   133  PHE133     -0.2864
     37  CB         6.5860   17.4030    6.3240 C.3   133  PHE133      0.0560
     38  CG         5.1970   16.8550    6.1380 C.ar  133  PHE133     -0.0200
     39  CD1        4.7230   16.5460    4.8630 C.ar  133  PHE133     -0.0042
     40  CD2        4.3930   16.5720    7.2400 C.ar  133  PHE133     -0.0042
     41  CE1        3.4730   15.9480    4.6930 C.ar  133  PHE133     -0.0003
     42  CE2        3.1500   15.9800    7.0770 C.ar  133  PHE133     -0.0003
     43  CZ         2.6890   15.6640    5.8050 C.ar  133  PHE133     -0.0000
     44  N         -0.2000   22.0630    3.1630 N.3   208  GLU208     -0.1231
     45  CA        -0.7950   21.3870    2.0140 C.3   208  GLU208      0.1699
     46  C         -2.0100   20.6260    2.5090 C.2   208  GLU208      0.2592
     47  O         -1.9920   20.1160    3.6320 O.2   208  GLU208     -0.2718
     48  CB         0.2290   20.4210    1.3840 C.3   208  GLU208      0.0402
     49  CG        -0.2590   19.5660    0.2120 C.3   208  GLU208      0.1161
     50  CD        -0.8650   18.2200    0.6260 C.2   208  GLU208      0.3649
     51  OE1       -0.6500   17.7530    1.7670 O.co2 208  GLU208     -0.2457
     52  OE2       -1.5520   17.5980   -0.2110 O.co2 208  GLU208     -0.2457
     53  N         -3.0640   20.5700    1.6930 N.am  209  SER209     -0.1952
     54  CA        -4.2920   19.8420    2.0470 C.3   209  SER209      0.1924
     55  C         -4.9240   20.4530    3.3220 C.2   209  SER209      0.2314
     56  O         -5.2390   21.6540    3.3340 O.2   209  SER209     -0.2863
     57  CB        -3.9620   18.3510    2.2140 C.3   209  SER209      0.2116
     58  OG        -5.1190   17.5430    2.1610 O.3   209  SER209     -0.2180
     59  N        -11.1460    9.5440    6.9530 N.3   296  PHE296     -0.1241
     60  CA       -11.2370   10.1120    5.6090 C.3   296  PHE296      0.1605
     61  C        -11.1820    9.1290    4.4280 C.2   296  PHE296      0.2264
     62  O        -11.6040    9.4750    3.3150 O.2   296  PHE296     -0.2867
     63  CB       -10.2650   11.3040    5.4290 C.3   296  PHE296      0.0534
     64  CG        -8.8150   10.9130    5.3440 C.ar  296  PHE296     -0.0203
     65  CD1       -8.2360   10.5900    4.1130 C.ar  296  PHE296     -0.0042
     66  CD2       -8.0300   10.8580    6.4880 C.ar  296  PHE296     -0.0042
     67  CE1       -6.9000   10.2160    4.0290 C.ar  296  PHE296     -0.0003
     68  CE2       -6.6950   10.4890    6.4100 C.ar  296  PHE296     -0.0003
     69  CZ        -6.1310   10.1660    5.1750 C.ar  296  PHE296     -0.0000
     70  N         -8.0060    9.9320   -5.3000 N.3   344  VAL344     -0.1231
     71  CA        -7.7340    9.1590   -4.1010 C.3   344  VAL344      0.1692
     72  C         -9.0230    8.9480   -3.2980 C.2   344  VAL344      0.2592
     73  O         -9.2990    7.8610   -2.7790 O.2   344  VAL344     -0.2718
     74  CB        -6.6870    9.8990   -3.2270 C.3   344  VAL344      0.0266
     75  CG1       -6.6140    9.2790   -1.8470 C.3   344  VAL344      0.0020
     76  CG2       -5.3110    9.8580   -3.9010 C.3   344  VAL344      0.0020
     77  N         -9.8100   10.0080   -3.2040 N.am  345  PHE345     -0.1976
     78  CA       -11.0600    9.9780   -2.4570 C.3   345  PHE345      0.1639
     79  C        -12.1670    9.2240   -3.1980 C.2   345  PHE345      0.2290
     80  O        -13.0540    8.6390   -2.5690 O.2   345  PHE345     -0.2864
     81  CB       -11.4570   11.4080   -2.1390 C.3   345  PHE345      0.0560
     82  CG       -10.3540   12.1970   -1.4720 C.ar  345  PHE345     -0.0200
     83  CD1       -9.9890   11.9270   -0.1500 C.ar  345  PHE345     -0.0042
     84  CD2       -9.6580   13.1840   -2.1750 C.ar  345  PHE345     -0.0042
     85  CE1       -8.9460   12.6280    0.4600 C.ar  345  PHE345     -0.0003
     86  CE2       -8.6150   13.8890   -1.5760 C.ar  345  PHE345     -0.0003
     87  CZ        -8.2580   13.6100   -0.2560 C.ar  345  PHE345     -0.0000
     88  N         -2.1510   13.2070   -8.7090 N.3   448  PHE448     -0.1227
     89  CA        -2.8980   13.0790   -7.4700 C.3   448  PHE448      0.1736
     90  C         -2.6200   14.0290   -6.3200 C.2   448  PHE448      0.2595
     91  O         -1.6030   14.7240   -6.2750 O.2   448  PHE448     -0.2718
     92  CB        -2.8500   11.6280   -6.9890 C.3   448  PHE448      0.0547
     93  CG        -1.4740   11.1690   -6.5790 C.ar  448  PHE448     -0.0202
     94  CD1       -1.0360   11.3340   -5.2650 C.ar  448  PHE448     -0.0042
     95  CD2       -0.6290   10.5490   -7.4970 C.ar  448  PHE448     -0.0042
     96  CE1        0.2100   10.8910   -4.8670 C.ar  448  PHE448     -0.0003
     97  CE2        0.6220   10.0980   -7.1100 C.ar  448  PHE448     -0.0003
     98  CZ         1.0450   10.2680   -5.7860 C.ar  448  PHE448     -0.0000
     99  N         -3.5750   14.0370   -5.3910 N.am  449  HIS449     -0.1961
    100  CA        -3.5370   14.8560   -4.1940 C.3   449  HIS449      0.1787
    101  C         -2.2930   14.5020   -3.3790 C.2   449  HIS449      0.2620
    102  O         -2.0590   13.3280   -3.0700 O.2   449  HIS449     -0.2715
    103  CB        -4.8040   14.5860   -3.3590 C.3   449  HIS449      0.0785
    104  CG        -4.9760   15.5080   -2.1910 C.ar  449  HIS449      0.0821
    105  ND1       -5.1630   16.8670   -2.3320 N.ar  449  HIS449     -0.2267
    106  CD2       -5.0030   15.2610   -0.8600 C.ar  449  HIS449      0.1154
    107  CE1       -5.3010   17.4160   -1.1390 C.ar  449  HIS449      0.1986
    108  NE2       -5.2110   16.4610   -0.2310 N.ar  449  HIS449     -0.2212
    109  N         -1.5070   15.5250   -3.0400 N.am  450  ALA450     -0.1977
    110  CA        -0.2790   15.3790   -2.2570 C.3   450  ALA450      0.1597
    111  C          0.9660   14.8070   -2.9630 C.2   450  ALA450      0.2287
    112  O          1.9480   14.4750   -2.2960 O.2   450  ALA450     -0.2864
    113  CB        -0.5440   14.6290   -0.9640 C.3   450  ALA450      0.0319
    114  N          4.0770   16.8210   -2.1930 N.3   453  ILE453     -0.1231
    115  CA         4.8940   16.6890   -0.9870 C.3   453  ILE453      0.1692
    116  C          6.1940   15.9410   -1.3970 C.2   453  ILE453      0.2591
    117  O          7.2710   16.2510   -0.8980 O.2   453  ILE453     -0.2718
    118  CB         4.1650   15.9050    0.1540 C.3   453  ILE453      0.0266
    119  CG1        2.9300   16.6790    0.6550 C.3   453  ILE453      0.0019
    120  CG2        5.1180   15.6580    1.3110 C.3   453  ILE453      0.0020
    121  CD1        3.2140   18.0620    1.2710 C.3   453  ILE453      0.0001
    122  N          6.0790   14.9650   -2.3000 N.am  454  VAL454     -0.1980
    123  CA         7.2380   14.2240   -2.7990 C.3   454  VAL454      0.1595
    124  C          8.2820   15.1640   -3.4600 C.2   454  VAL454      0.2287
    125  O          9.4630   15.1310   -3.1130 O.2   454  VAL454     -0.2864
    126  CB         6.8360   13.1460   -3.8640 C.3   454  VAL454      0.0276
    127  CG1        8.0820   12.4410   -4.3820 C.3   454  VAL454      0.0022
    128  CG2        5.8580   12.1450   -3.2830 C.3   454  VAL454      0.0022
    129  N         11.0350   15.2460   -0.7180 N.3   458  TYR458     -0.1227
    130  CA        11.7470   13.9930   -0.9430 C.3   458  TYR458      0.1736
    131  C         12.6290   13.8390   -2.1870 C.2   458  TYR458      0.2595
    132  O         13.7150   13.2770   -2.0980 O.2   458  TYR458     -0.2718
    133  CB        10.7570   12.8270   -0.9090 C.3   458  TYR458      0.0548
    134  CG        10.1560   12.5620    0.4440 C.ar  458  TYR458     -0.0200
    135  CD1        9.0000   13.2290    0.8650 C.ar  458  TYR458     -0.0009
    136  CD2       10.7660   11.6600    1.3290 C.ar  458  TYR458     -0.0009
    137  CE1        8.4640   13.0070    2.1460 C.ar  458  TYR458      0.0417
    138  CE2       10.2420   11.4300    2.6120 C.ar  458  TYR458      0.0417
    139  CZ         9.0940   12.1050    3.0100 C.ar  458  TYR458      0.1957
    140  OH         8.5880   11.8560    4.2610 O.3   458  TYR458     -0.2866
    141  N         12.1400   14.2520   -3.3500 N.am  459  LEU459     -0.1980
    142  CA        12.9050   14.1050   -4.5830 C.3   459  LEU459      0.1596
    143  C         12.8180   15.3670   -5.3740 C.2   459  LEU459      0.2287
    144  O         11.9800   16.2300   -5.1010 O.2   459  LEU459     -0.2864
    145  CB        12.3300   12.9950   -5.4710 C.3   459  LEU459      0.0297
    146  CG        12.1030   11.5940   -4.9180 C.3   459  LEU459      0.0022
    147  CD1       11.2920   10.7540   -5.8990 C.3   459  LEU459      0.0001
    148  CD2       13.4360   10.9470   -4.6240 C.3   459  LEU459      0.0001
@<TRIPOS>BOND
     1    88    89    1
     2    95    97   ar
     3    95    93   ar
     4    89    92    1
     5    89    90    1
     6    97    98   ar
     7    92    93    1
     8    93    94   ar
     9    90    91    2
    10    90    99   am
    11   147   146    1
    12    98    96   ar
    13   145   146    1
    14   145   142    1
    15    99   100    1
    16   143   144    2
    17   143   142    1
    18    70    71    1
    19    94    96   ar
    20   146   148    1
    21   142   141    1
    22   127   126    1
    23   100   101    1
    24   100   103    1
    25    71    72    1
    26    71    74    1
    27    76    74    1
    28   126   128    1
    29   126   123    1
    30   124   125    2
    31   124   123    1
    32   101   102    2
    33   101   109   am
    34   103   104    1
    35   141   131   am
    36    72    77   am
    37    72    73    2
    38    74    75    1
    39    77    78    1
    40    79    80    2
    41    79    78    1
    42   109   110    1
    43   111   112    2
    44   111   110    1
    45   123   122    1
    46    78    81    1
    47   105   104   ar
    48   105   107   ar
    49   122   116   am
    50   110   113    1
    51   114   115    1
    52   104   106   ar
    53   131   132    2
    54   131   130    1
    55    84    86   ar
    56    84    82   ar
    57    81    82    1
    58    86    87   ar
    59    82    83   ar
    60   116   115    1
    61   116   117    2
    62   107   108   ar
    63   115   118    1
    64   130   133    1
    65   130   129    1
    66   133   134    1
    67   106   108   ar
    68    87    85   ar
    69    52    50   ar
    70    83    85   ar
    71   118   119    1
    72   118   120    1
    73    49    50    1
    74    49    48    1
    75   134   135   ar
    76   134   136   ar
    77    50    51   ar
    78   119   121    1
    79   135   137   ar
    80   136   138   ar
    81    48    45    1
    82    53    54    1
    83    53    46   am
    84    45    46    1
    85    45    44    1
    86    54    57    1
    87    54    55    1
    88   137   139   ar
    89    58    57    1
    90    46    47    2
    91   138   139   ar
    92   139   140    1
    93    62    61    2
    94    55    56    2
    95    67    65   ar
    96    67    69   ar
    97    65    64   ar
    98    61    60    1
    99    41    39   ar
   100    41    43   ar
   101    39    38   ar
   102    69    68   ar
   103    64    63    1
   104    64    66   ar
   105    63    60    1
   106    60    59    1
   107    28    27    2
   108    43    42   ar
   109    34    35    1
   110    34    37    1
   111    34    33    1
   112    38    37    1
   113    38    40   ar
   114    35    36    2
   115    68    66   ar
   116     2     3    1
   117     2     1    1
   118     9    10    1
   119     9     7   am
   120     5     3   am
   121     5     6    1
   122     3     4    2
   123    10    11    1
   124    27    33   am
   125    27    26    1
   126     6     7    1
   127    42    40   ar
   128     7     8    2
   129    20    18    1
   130    29    26    1
   131    29    30    1
   132    29    31    1
   133    32    30    1
   134    26    25    1
   135    11    12    2
   136    18    17    1
   137    17    19    1
   138    17    14    1
   139    16    15    2
   140    22    21    1
   141    22    23    1
   142    15    21   am
   143    15    14    1
   144    13    14    1
   145    23    24    2
