@<TRIPOS>MOLECULE
tmp/1clqC00.pdb
 154 149 0 0 0
SMALL
GASTEIGER

@<TRIPOS>ATOM
      1  N         49.9960  -19.1710   46.4420 N.3    33  TYR33      -0.1227
      2  CA        50.4050  -18.4060   45.2630 C.3    33  TYR33       0.1736
      3  C         49.2750  -17.6910   44.5160 C.2    33  TYR33       0.2595
      4  O         48.2420  -18.2750   44.2210 O.2    33  TYR33      -0.2718
      5  CB        51.1470  -19.3350   44.3020 C.3    33  TYR33       0.0548
      6  CG        51.6540  -18.6690   43.0380 C.ar   33  TYR33      -0.0200
      7  CD1       52.6540  -17.7060   43.0880 C.ar   33  TYR33      -0.0009
      8  CD2       51.1430  -19.0200   41.7910 C.ar   33  TYR33      -0.0009
      9  CE1       53.1360  -17.1090   41.9380 C.ar   33  TYR33       0.0417
     10  CE2       51.6180  -18.4310   40.6340 C.ar   33  TYR33       0.0417
     11  CZ        52.6210  -17.4690   40.7160 C.ar   33  TYR33       0.1957
     12  OH        53.1090  -16.8630   39.5810 O.3    33  TYR33      -0.2866
     13  N         49.5000  -16.4250   44.1850 N.am   34  LYS34      -0.1966
     14  CA        48.5040  -15.6190   43.4860 C.3    34  LYS34       0.1713
     15  C         48.9860  -15.2860   42.0890 C.2    34  LYS34       0.2458
     16  O         49.7490  -14.3450   41.8840 O.2    34  LYS34      -0.2730
     17  CB        48.2250  -14.3480   44.2880 C.3    34  LYS34       0.0311
     18  CG        47.6980  -14.6630   45.6860 C.3    34  LYS34       0.0038
     19  CD        47.4510  -13.4340   46.5350 C.3    34  LYS34       0.0206
     20  CE        47.0270  -13.8440   47.9490 C.3    34  LYS34       0.1093
     21  NZ        45.8100  -14.7270   47.9710 N.3    34  LYS34      -0.1314
     22  N         48.5250  -16.0610   41.1050 N.am   35  PRO35      -0.2716
     23  CA        48.8350  -15.9680   39.6830 C.3    35  PRO35       0.1536
     24  C         48.2620  -14.7790   38.9450 C.2    35  PRO35       0.2599
     25  O         47.3880  -14.0950   39.4420 O.2    35  PRO35      -0.2715
     26  CB        48.2870  -17.2710   39.1400 C.3    35  PRO35       0.0310
     27  CG        47.0350  -17.4200   39.9490 C.3    35  PRO35       0.0237
     28  CD        47.5400  -17.1250   41.3480 C.3    35  PRO35       0.0939
     29  N         48.7750  -14.5640   37.7360 N.am   36  SER36      -0.1950
     30  CA        48.3610  -13.4860   36.8520 C.3    36  SER36       0.1924
     31  C         48.1690  -14.0640   35.4670 C.2    36  SER36       0.2314
     32  O         48.8530  -15.0020   35.0880 O.2    36  SER36      -0.2863
     33  CB        49.4430  -12.4070   36.7540 C.3    36  SER36       0.2116
     34  OG        49.8260  -11.9310   38.0300 O.3    36  SER36      -0.2180
     35  N         46.6060  -12.7770   31.2510 N.3    38  PHE38      -0.1241
     36  CA        46.4810  -11.5720   30.4580 C.3    38  PHE38       0.1605
     37  C         45.3530  -11.5930   29.4800 C.2    38  PHE38       0.2264
     38  O         44.8380  -12.6410   29.1380 O.2    38  PHE38      -0.2867
     39  CB        47.7910  -11.3310   29.7010 C.3    38  PHE38       0.0534
     40  CG        48.9590  -11.1140   30.5950 C.ar   38  PHE38      -0.0203
     41  CD1       49.5480  -12.1860   31.2510 C.ar   38  PHE38      -0.0042
     42  CD2       49.4250   -9.8350   30.8510 C.ar   38  PHE38      -0.0042
     43  CE1       50.5760  -11.9890   32.1540 C.ar   38  PHE38      -0.0003
     44  CE2       50.4630   -9.6310   31.7570 C.ar   38  PHE38      -0.0003
     45  CZ        51.0370  -10.7130   32.4100 C.ar   38  PHE38      -0.0000
     46  N         53.0330   -1.8910   29.2970 N.3    48  LYS48      -0.1231
     47  CA        54.3450   -2.4430   28.9920 C.3    48  LYS48       0.1693
     48  C         54.2750   -3.8860   28.5130 C.2    48  LYS48       0.2592
     49  O         55.2580   -4.4360   28.0270 O.2    48  LYS48      -0.2718
     50  CB        55.2160   -2.3780   30.2290 C.3    48  LYS48       0.0285
     51  CG        54.7060   -3.2120   31.3700 C.3    48  LYS48       0.0035
     52  CD        55.6690   -3.1280   32.5140 C.3    48  LYS48       0.0206
     53  CE        55.1570   -3.8600   33.7160 C.3    48  LYS48       0.1093
     54  NZ        55.8830   -3.3400   34.8960 N.3    48  LYS48      -0.1314
     55  N         53.1070   -4.4930   28.6680 N.am   49  TYR49      -0.1976
     56  CA        52.8940   -5.8630   28.2610 C.3    49  TYR49       0.1639
     57  C         52.4090   -6.0230   26.8220 C.2    49  TYR49       0.2290
     58  O         51.4420   -5.3880   26.4030 O.2    49  TYR49      -0.2864
     59  CB        51.8920   -6.5130   29.1910 C.3    49  TYR49       0.0560
     60  CG        52.3380   -6.5700   30.6280 C.ar   49  TYR49      -0.0198
     61  CD1       53.4950   -7.2580   30.9990 C.ar   49  TYR49      -0.0009
     62  CD2       51.5740   -5.9860   31.6280 C.ar   49  TYR49      -0.0009
     63  CE1       53.8650   -7.3640   32.3390 C.ar   49  TYR49       0.0417
     64  CE2       51.9320   -6.0890   32.9630 C.ar   49  TYR49       0.0417
     65  CZ        53.0730   -6.7770   33.3190 C.ar   49  TYR49       0.1957
     66  OH        53.4010   -6.9060   34.6510 O.3    49  TYR49      -0.2866
     67  N         47.3660   -6.8480   32.6170 N.3    59  ARG59      -0.1245
     68  CA        47.5480   -7.8990   33.6070 C.3    59  ARG59       0.1563
     69  C         46.2960   -8.0780   34.4760 C.2    59  ARG59       0.2260
     70  O         45.5090   -7.1560   34.6390 O.2    59  ARG59      -0.2867
     71  CB        48.7690   -7.5440   34.4630 C.3    59  ARG59       0.0307
     72  CG        49.2010   -8.5990   35.4260 C.3    59  ARG59       0.0489
     73  CD        50.2340   -8.0030   36.3430 C.3    59  ARG59       0.2205
     74  NE        50.6190   -8.9470   37.3810 N.pl3  59  ARG59      -0.0865
     75  CZ        51.3500   -8.6310   38.4420 C.cat  59  ARG59       0.5346
     76  NH1       51.7780   -7.3810   38.6110 N.pl3  59  ARG59       0.1354
     77  NH2       51.6570   -9.5670   39.3290 N.pl3  59  ARG59       0.1354
     78  N         49.0350  -16.0080   28.6720 N.3    84  GLY84      -0.1210
     79  CA        49.7360  -16.2610   29.9100 C.3    84  GLY84       0.1956
     80  C         49.9830  -17.7120   30.2400 C.2    84  GLY84       0.2611
     81  O         49.2910  -18.6090   29.7510 O.2    84  GLY84      -0.2717
     82  N         50.9780  -17.9290   31.0940 N.am   85  MET85      -0.1979
     83  CA        51.3730  -19.2530   31.5430 C.3    85  MET85       0.1605
     84  C         50.2860  -19.8480   32.4250 C.2    85  MET85       0.2287
     85  O         50.0750  -19.3920   33.5410 O.2    85  MET85      -0.2864
     86  CB        52.7010  -19.1520   32.3090 C.3    85  MET85       0.0413
     87  CG        53.1610  -20.4540   32.9750 C.3    85  MET85       0.0598
     88  SD        53.0890  -21.8870   31.8710 S.3    85  MET85      -0.1393
     89  CE        54.5510  -21.5350   30.7440 C.3    85  MET85       0.0692
     90  N         55.1990  -20.7750   36.7060 N.3    91  ALA91      -0.1245
     91  CA        55.1640  -19.3280   36.8610 C.3    91  ALA91       0.1562
     92  C         55.6990  -19.0030   38.2430 C.2    91  ALA91       0.2260
     93  O         56.3830  -18.0090   38.4570 O.2    91  ALA91      -0.2867
     94  CB        53.7400  -18.8100   36.6980 C.3    91  ALA91       0.0290
     95  N         59.1520  -16.8820   39.1810 N.3    95  ASP95      -0.1239
     96  CA        59.0850  -15.7060   40.0450 C.3    95  ASP95       0.1674
     97  C         60.0010  -15.8100   41.2580 C.2    95  ASP95       0.2266
     98  O         60.5900  -14.8230   41.6820 O.2    95  ASP95      -0.2867
     99  CB        57.6360  -15.4700   40.5350 C.3    95  ASP95       0.1410
    100  CG        56.6740  -14.9730   39.4260 C.2    95  ASP95       0.3668
    101  OD1       57.1100  -14.5900   38.3120 O.co2  95  ASP95      -0.2456
    102  OD2       55.4500  -14.9520   39.6980 O.co2  95  ASP95      -0.2456
    103  N         59.1230  -19.3190   27.6920 N.3   370  PHE370     -0.1241
    104  CA        58.2970  -18.5340   28.6010 C.3   370  PHE370      0.1605
    105  C         59.1810  -17.6260   29.4410 C.2   370  PHE370      0.2264
    106  O         58.9740  -16.4120   29.5070 O.2   370  PHE370     -0.2867
    107  CB        57.5110  -19.4550   29.5260 C.3   370  PHE370      0.0534
    108  CG        56.9600  -18.7680   30.7400 C.ar  370  PHE370     -0.0203
    109  CD1       56.3220  -17.5380   30.6280 C.ar  370  PHE370     -0.0042
    110  CD2       57.1260  -19.3240   32.0020 C.ar  370  PHE370     -0.0042
    111  CE1       55.8690  -16.8780   31.7580 C.ar  370  PHE370     -0.0003
    112  CE2       56.6780  -18.6730   33.1370 C.ar  370  PHE370     -0.0003
    113  CZ        56.0500  -17.4490   33.0220 C.ar  370  PHE370     -0.0000
    114  N         59.2570  -13.6950   29.4350 N.3   374  LYS374     -0.1245
    115  CA        58.8330  -12.9760   30.6280 C.3   374  LYS374      0.1561
    116  C         59.8250  -11.8860   31.0270 C.2   374  LYS374      0.2260
    117  O         59.4240  -10.8300   31.5200 O.2   374  LYS374     -0.2867
    118  CB        58.6470  -13.9610   31.7800 C.3   374  LYS374      0.0271
    119  CG        58.4210  -13.3200   33.1350 C.3   374  LYS374      0.0035
    120  CD        58.1210  -14.3790   34.1670 C.3   374  LYS374      0.0206
    121  CE        58.1650  -13.8460   35.6000 C.3   374  LYS374      0.1093
    122  NZ        59.5520  -13.6630   36.1450 N.3   374  LYS374     -0.1314
    123  N         58.7330   -8.5060   29.4520 N.3   377  ASN377     -0.1225
    124  CA        57.3700   -8.0340   29.5540 C.3   377  ASN377      0.1785
    125  C         56.5910   -8.5340   28.3420 C.2   377  ASN377      0.2597
    126  O         55.7900   -7.8010   27.7560 O.2   377  ASN377     -0.2718
    127  CB        57.3250   -6.5050   29.5970 C.3   377  ASN377      0.1169
    128  CG        58.1150   -5.9210   30.7590 C.2   377  ASN377      0.2627
    129  OD1       58.0890   -6.4460   31.8840 O.2   377  ASN377     -0.2716
    130  ND2       58.8050   -4.8070   30.4990 N.am  377  ASN377     -0.0877
    131  N         56.8430   -9.7770   27.9440 N.am  378  LYS378     -0.1966
    132  CA        56.1320  -10.3610   26.8100 C.3   378  LYS378      0.1728
    133  C         55.1550  -11.4040   27.3510 C.2   378  LYS378      0.2616
    134  O         55.3980  -12.0240   28.3850 O.2   378  LYS378     -0.2715
    135  CB        57.1200  -10.9920   25.8530 C.3   378  LYS378      0.0311
    136  CG        58.0140  -10.0030   25.1760 C.3   378  LYS378      0.0038
    137  CD        57.4510   -9.6140   23.8300 C.3   378  LYS378      0.0206
    138  CE        58.3860  -10.0080   22.6800 C.3   378  LYS378      0.1093
    139  NZ        59.7120   -9.3010   22.6680 N.3   378  LYS378     -0.1314
    140  N         54.0470  -11.5930   26.6520 N.am  379  VAL379     -0.1963
    141  CA        53.0230  -12.5250   27.1040 C.3   379  VAL379      0.1727
    142  C         52.8190  -13.7060   26.1570 C.2   379  VAL379      0.2616
    143  O         52.4480  -13.5200   24.9990 O.2   379  VAL379     -0.2715
    144  CB        51.6950  -11.7630   27.2990 C.3   379  VAL379      0.0290
    145  CG1       50.6320  -12.7000   27.7810 C.3   379  VAL379      0.0023
    146  CG2       51.9020  -10.6150   28.2970 C.3   379  VAL379      0.0023
    147  N         53.0490  -14.9200   26.6510 N.am  380  ILE380     -0.1977
    148  CA        52.9140  -16.1080   25.8110 C.3   380  ILE380      0.1596
    149  C         51.4980  -16.3640   25.3530 C.2   380  ILE380      0.2287
    150  O         50.5500  -16.1530   26.0990 O.2   380  ILE380     -0.2864
    151  CB        53.4300  -17.3850   26.5160 C.3   380  ILE380      0.0276
    152  CG1       52.5590  -17.7240   27.7280 C.3   380  ILE380      0.0022
    153  CG2       54.8880  -17.1850   26.9100 C.3   380  ILE380      0.0022
    154  CD1       53.0020  -18.9630   28.4820 C.3   380  ILE380      0.0001
@<TRIPOS>BOND
     1   139   138    1
     2   138   137    1
     3   137   136    1
     4   143   142    2
     5   136   135    1
     6   149   148    1
     7   149   150    2
     8   148   151    1
     9   148   147    1
    10   135   132    1
    11   142   147   am
    12   142   141    1
    13    58    57    2
    14   151   153    1
    15   151   152    1
    16   140   141    1
    17   140   133   am
    18   132   133    1
    19   132   131    1
    20    57    56    1
    21   141   144    1
    22   144   145    1
    23   144   146    1
    24   133   134    2
    25   103   104    1
    26   152   154    1
    27   126   125    2
    28   131   125   am
    29    49    48    2
    30    56    55    1
    31    56    59    1
    32   125   124    1
    33    48    55   am
    34    48    47    1
    35   104   105    1
    36   104   107    1
    37    78    79    1
    38    47    46    1
    39    47    50    1
    40    38    37    2
    41    59    60    1
    42   114   115    1
    43   105   106    2
    44   123   124    1
    45    37    36    1
    46   107   108    1
    47   124   127    1
    48   127   128    1
    49    39    36    1
    50    39    40    1
    51    81    80    2
    52    79    80    1
    53    50    51    1
    54    80    82   am
    55    36    35    1
    56   130   128   am
    57    40    42   ar
    58    40    41   ar
    59   109   108   ar
    60   109   111   ar
    61    60    61   ar
    62    60    62   ar
    63   115   116    1
    64   115   118    1
    65   108   110   ar
    66    89    88    1
    67   128   129    2
    68    42    44   ar
    69    61    63   ar
    70   116   117    2
    71    82    83    1
    72    41    43   ar
    73    51    52    1
    74    83    86    1
    75    83    84    1
    76    62    64   ar
    77    44    45   ar
    78   111   113   ar
    79   118   119    1
    80    88    87    1
    81   110   112   ar
    82    43    45   ar
    83    86    87    1
    84    63    65   ar
    85    84    85    2
    86    52    53    1
    87    67    68    1
    88    64    65   ar
    89   113   112   ar
    90   119   120    1
    91    65    66    1
    92    68    71    1
    93    68    69    1
    94    53    54    1
    95   120   121    1
    96    71    72    1
    97    69    70    2
    98    32    31    2
    99    72    73    1
   100    31    30    1
   101   121   122    1
   102    73    74    1
   103    94    91    1
   104    90    91    1
   105    33    30    1
   106    33    34    1
   107    30    29    1
   108    91    92    1
   109    74    75    2
   110    29    24   am
   111    92    93    2
   112   101   100   ar
   113    75    76    1
   114    75    77    1
   115    24    25    2
   116    24    23    1
   117    26    23    1
   118    26    27    1
   119    95    96    1
   120   100   102   ar
   121   100    99    1
   122    12    11    1
   123    23    22    1
   124    27    28    1
   125    96    99    1
   126    96    97    1
   127    10    11   ar
   128    10     8   ar
   129    11     9   ar
   130    22    28    1
   131    22    15   am
   132    97    98    2
   133     8     6   ar
   134    16    15    2
   135     9     7   ar
   136    15    14    1
   137     6     7   ar
   138     6     5    1
   139    14    13    1
   140    14    17    1
   141    13     3   am
   142     4     3    2
   143    17    18    1
   144     5     2    1
   145     3     2    1
   146     2     1    1
   147    18    19    1
   148    19    20    1
   149    20    21    1
