@<TRIPOS>MOLECULE
tmp/1clyB00.pdb
 108 108 0 0 0
SMALL
GASTEIGER

@<TRIPOS>ATOM
      1  N        -23.2030   -6.3220  156.8820 N.3    31  ASP31      -0.1225
      2  CA       -23.9670   -6.5490  155.6630 C.3    31  ASP31       0.1805
      3  C        -23.1930   -6.2300  154.3790 C.2    31  ASP31       0.2598
      4  O        -23.6210   -6.6270  153.2860 O.2    31  ASP31      -0.2718
      5  CB       -25.2500   -5.7100  155.6930 C.3    31  ASP31       0.1424
      6  CG       -26.3980   -6.4130  156.3970 C.2    31  ASP31       0.3668
      7  OD1      -26.1800   -7.5020  156.9720 O.co2  31  ASP31      -0.2456
      8  OD2      -27.5310   -5.8750  156.3600 O.co2  31  ASP31      -0.2456
      9  N        -22.0390   -5.5750  154.5180 N.am   32  TYR32      -0.1962
     10  CA       -21.2500   -5.1400  153.3680 C.3    32  TYR32       0.1771
     11  C        -19.8650   -5.7040  153.1040 C.2    32  TYR32       0.2619
     12  O        -19.1370   -6.0410  154.0260 O.2    32  TYR32      -0.2715
     13  CB       -21.1140   -3.6190  153.4260 C.3    32  TYR32       0.0574
     14  CG       -22.4220   -2.8890  153.3440 C.ar   32  TYR32      -0.0198
     15  CD1      -23.1810   -2.6560  154.4910 C.ar   32  TYR32      -0.0009
     16  CD2      -22.9130   -2.4370  152.1160 C.ar   32  TYR32      -0.0009
     17  CE1      -24.4030   -1.9850  154.4190 C.ar   32  TYR32       0.0417
     18  CE2      -24.1350   -1.7670  152.0310 C.ar   32  TYR32       0.0417
     19  CZ       -24.8730   -1.5450  153.1840 C.ar   32  TYR32       0.1957
     20  OH       -26.0830   -0.8960  153.1140 O.3    32  TYR32      -0.2866
     21  N        -19.5240   -5.8250  151.8200 N.am   33  TYR33      -0.1974
     22  CA       -18.1870   -6.2500  151.4320 C.3    33  TYR33       0.1639
     23  C        -17.3950   -4.9720  151.7020 C.2    33  TYR33       0.2290
     24  O        -17.9130   -3.8590  151.4700 O.2    33  TYR33      -0.2864
     25  CB       -18.1010   -6.5330  149.9370 C.3    33  TYR33       0.0560
     26  CG       -18.0820   -7.9910  149.5520 C.ar   33  TYR33      -0.0198
     27  CD1      -19.2220   -8.7670  149.6900 C.ar   33  TYR33      -0.0009
     28  CD2      -16.9400   -8.5800  148.9870 C.ar   33  TYR33      -0.0009
     29  CE1      -19.2510  -10.0850  149.2760 C.ar   33  TYR33       0.0417
     30  CE2      -16.9490   -9.9130  148.5620 C.ar   33  TYR33       0.0417
     31  CZ       -18.1220  -10.6560  148.7110 C.ar   33  TYR33       0.1957
     32  OH       -18.2100  -11.9610  148.2830 O.3    33  TYR33      -0.2866
     33  N        -13.5180   -2.8100  151.4550 N.3    35  TYR35      -0.1241
     34  CA       -12.3390   -2.6840  150.6190 C.3    35  TYR35       0.1605
     35  C        -11.2130   -1.8840  151.2660 C.2    35  TYR35       0.2264
     36  O        -11.4330   -1.0630  152.1610 O.2    35  TYR35      -0.2867
     37  CB       -12.7240   -1.9670  149.3170 C.3    35  TYR35       0.0534
     38  CG       -13.7950   -2.6330  148.4930 C.ar   35  TYR35      -0.0201
     39  CD1      -13.4940   -3.7020  147.6720 C.ar   35  TYR35      -0.0009
     40  CD2      -15.1080   -2.2180  148.5510 C.ar   35  TYR35      -0.0009
     41  CE1      -14.4670   -4.3500  146.9390 C.ar   35  TYR35       0.0417
     42  CE2      -16.0890   -2.8570  147.8140 C.ar   35  TYR35       0.0417
     43  CZ       -15.7570   -3.9260  147.0090 C.ar   35  TYR35       0.1957
     44  OH       -16.6980   -4.5920  146.2870 O.3    35  TYR35      -0.2866
     45  N        -10.3050   -6.8580  149.2340 N.3    50  TYR50      -0.1241
     46  CA       -11.7220   -6.8590  149.5820 C.3    50  TYR50       0.1605
     47  C        -11.9900   -8.1020  150.4330 C.2    50  TYR50       0.2264
     48  O        -11.2230   -9.0700  150.3910 O.2    50  TYR50      -0.2867
     49  CB       -12.6300   -6.8340  148.3350 C.3    50  TYR50       0.0534
     50  CG       -12.8280   -8.1430  147.5730 C.ar   50  TYR50      -0.0201
     51  CD1      -13.4990   -9.2360  148.1420 C.ar   50  TYR50      -0.0009
     52  CD2      -12.3920   -8.2680  146.2580 C.ar   50  TYR50      -0.0009
     53  CE1      -13.7260  -10.4010  147.4210 C.ar   50  TYR50       0.0417
     54  CE2      -12.6190   -9.4320  145.5260 C.ar   50  TYR50       0.0417
     55  CZ       -13.2810  -10.4900  146.1120 C.ar   50  TYR50       0.1957
     56  OH       -13.4820  -11.6230  145.3650 O.3    50  TYR50      -0.2866
     57  N        -18.7410  -10.4640  153.7190 N.3    53  GLN53      -0.1245
     58  CA       -19.3070  -10.1780  155.0230 C.3    53  GLN53       0.1566
     59  C        -18.9330  -11.2030  156.0800 C.2    53  GLN53       0.2260
     60  O        -18.6600  -10.8540  157.2200 O.2    53  GLN53      -0.2867
     61  CB       -20.8100  -10.0510  154.9320 C.3    53  GLN53       0.0367
     62  CG       -21.2670   -8.9700  153.9690 C.3    53  GLN53       0.0905
     63  CD       -21.8090   -9.5370  152.6650 C.2    53  GLN53       0.2608
     64  OE1      -21.2330  -10.4640  152.0900 O.2    53  GLN53      -0.2717
     65  NE2      -22.9450   -9.0100  152.2150 N.am   53  GLN53      -0.0878
     66  N        -19.1580   -0.2040  149.6320 N.3    99  GLY99      -0.1210
     67  CA       -19.8550   -0.0520  148.3700 C.3    99  GLY99       0.1956
     68  C        -21.3420    0.1040  148.4750 C.2    99  GLY99       0.2612
     69  O        -21.8450    0.6410  149.4470 O.2    99  GLY99      -0.2717
     70  N        -22.0470   -0.3660  147.4520 N.am  100  LEU100     -0.1965
     71  CA       -23.4890   -0.2930  147.4040 C.3   100  LEU100      0.1728
     72  C        -23.9700   -1.6420  146.9930 C.2   100  LEU100      0.2616
     73  O        -23.3980   -2.2620  146.1160 O.2   100  LEU100     -0.2715
     74  CB       -23.9570    0.7050  146.3450 C.3   100  LEU100      0.0311
     75  CG       -23.8910    2.1890  146.6720 C.3   100  LEU100      0.0022
     76  CD1      -24.3280    2.9890  145.4640 C.3   100  LEU100      0.0001
     77  CD2      -24.7800    2.4790  147.8690 C.3   100  LEU100      0.0001
     78  N        -25.0330   -2.0930  147.6250 N.am  101  ASP101     -0.1971
     79  CA       -25.6370   -3.3850  147.3060 C.3   101  ASP101      0.1709
     80  C        -25.9730   -3.4150  145.8080 C.2   101  ASP101      0.2293
     81  O        -25.8570   -4.4440  145.1330 O.2   101  ASP101     -0.2864
     82  CB       -26.9190   -3.5220  148.1180 C.3   101  ASP101      0.1436
     83  CG       -27.7360   -2.2320  148.1300 C.2   101  ASP101      0.3671
     84  OD1      -27.2940   -1.2480  148.7800 O.co2 101  ASP101     -0.2456
     85  OD2      -28.7990   -2.1960  147.4680 O.co2 101  ASP101     -0.2456
     86  N        -24.3940   -2.2620  143.1640 N.3   103  GLY103     -0.1210
     87  CA       -23.4080   -2.5890  142.1590 C.3   103  GLY103      0.1956
     88  C        -22.3890   -1.4920  142.0020 C.2   103  GLY103      0.2612
     89  O        -22.0570   -1.1150  140.8810 O.2   103  GLY103     -0.2717
     90  N        -21.9010   -0.9840  143.1340 N.am  104  ALA104     -0.1965
     91  CA       -20.9010    0.0800  143.1780 C.3   104  ALA104      0.1728
     92  C        -19.8210   -0.3340  144.1610 C.2   104  ALA104      0.2616
     93  O        -20.1100   -0.9200  145.2080 O.2   104  ALA104     -0.2715
     94  CB       -21.5200    1.3830  143.5970 C.3   104  ALA104      0.0334
     95  N        -18.5790   -0.0450  143.8070 N.am  105  TRP105     -0.1974
     96  CA       -17.4380   -0.4210  144.6240 C.3   105  TRP105      0.1640
     97  C        -17.1760    0.4930  145.7980 C.2   105  TRP105      0.2290
     98  O        -17.3440    0.0860  146.9350 O.2   105  TRP105     -0.2864
     99  CB       -16.1510   -0.5060  143.7730 C.3   105  TRP105      0.0576
    100  CG       -15.7790   -1.8990  143.2940 C.ar  105  TRP105      0.0006
    101  CD1      -14.6610   -2.5990  143.6190 C.ar  105  TRP105      0.0946
    102  CD2      -16.5790   -2.7650  142.4860 C.ar  105  TRP105      0.0152
    103  NE1      -14.7290   -3.8550  143.0850 N.ar  105  TRP105     -0.2442
    104  CE2      -15.8930   -3.9850  142.3840 C.ar  105  TRP105      0.0810
    105  CE3      -17.8190   -2.6360  141.8420 C.ar  105  TRP105      0.0012
    106  CZ2      -16.4040   -5.0680  141.6760 C.ar  105  TRP105      0.0191
    107  CZ3      -18.3190   -3.7080  141.1390 C.ar  105  TRP105      0.0001
    108  CH2      -17.6130   -4.9060  141.0640 C.ar  105  TRP105      0.0015
@<TRIPOS>BOND
     1    89    88    2
     2   108   107   ar
     3   108   106   ar
     4   107   105   ar
     5   106   104   ar
     6   105   102   ar
     7    88    87    1
     8    88    90   am
     9    87    86    1
    10   104   102   ar
    11   104   103   ar
    12   102   100   ar
    13   103   101   ar
    14    90    91    1
    15    91    94    1
    16    91    92    1
    17   100   101   ar
    18   100    99    1
    19    99    96    1
    20    95    92   am
    21    95    96    1
    22    92    93    2
    23    96    97    1
    24    81    80    2
    25    56    55    1
    26    76    75    1
    27    54    55   ar
    28    54    52   ar
    29    97    98    2
    30    80    79    1
    31    55    53   ar
    32    73    72    2
    33    52    50   ar
    34    44    43    1
    35    74    75    1
    36    74    71    1
    37    75    77    1
    38    41    43   ar
    39    41    39   ar
    40    72    71    1
    41    72    78   am
    42    43    42   ar
    43    79    78    1
    44    79    82    1
    45    71    70    1
    46    53    51   ar
    47    70    68   am
    48    85    83   ar
    49    50    51   ar
    50    50    49    1
    51    39    38   ar
    52    42    40   ar
    53    82    83    1
    54    83    84   ar
    55    32    31    1
    56    49    46    1
    57    67    68    1
    58    67    66    1
    59    68    69    2
    60    38    40   ar
    61    38    37    1
    62    30    31   ar
    63    30    28   ar
    64    31    29   ar
    65    28    26   ar
    66    45    46    1
    67    29    27   ar
    68    37    34    1
    69    26    27   ar
    70    26    25    1
    71    46    47    1
    72    25    22    1
    73    48    47    2
    74    34    35    1
    75    34    33    1
    76    35    36    2
    77    22    23    1
    78    22    21    1
    79    24    23    2
    80    21    11   am
    81    18    16   ar
    82    18    19   ar
    83    64    63    2
    84    16    14   ar
    85    65    63   am
    86    63    62    1
    87    11    10    1
    88    11    12    2
    89    20    19    1
    90    19    17   ar
    91     4     3    2
    92    14    13    1
    93    14    15   ar
    94    10    13    1
    95    10     9    1
    96    57    58    1
    97    62    61    1
    98     3     9   am
    99     3     2    1
   100    17    15   ar
   101    61    58    1
   102    58    59    1
   103     2     5    1
   104     2     1    1
   105     5     6    1
   106    59    60    2
   107     8     6   ar
   108     6     7   ar
