@<TRIPOS>MOLECULE
tmp/1cm8B00.pdb
 157 146 0 0 0
SMALL
GASTEIGER

@<TRIPOS>ATOM
      1  N          2.8870   39.6880   54.2570 N.3    26  VAL26      -0.1245
      2  CA         3.3330   40.7750   53.3900 C.3    26  VAL26       0.1561
      3  C          3.0040   40.4570   51.9340 C.2    26  VAL26       0.2260
      4  O          2.9120   41.4240   51.1290 O.2    26  VAL26      -0.2867
      5  CB         4.8530   41.0250   53.4970 C.3    26  VAL26       0.0252
      6  CG1        5.1600   41.9090   54.6750 C.3    26  VAL26       0.0019
      7  CG2        5.6150   39.7050   53.5950 C.3    26  VAL26       0.0019
      8  N          2.3470   32.9020   49.5190 N.3    27  ALA27      -0.1231
      9  CA         2.3470   33.8110   50.6960 C.3    27  ALA27       0.1694
     10  C          3.7040   33.8170   51.4160 C.2    27  ALA27       0.2591
     11  O          4.3860   32.7930   51.5590 O.2    27  ALA27      -0.2718
     12  CB         1.2080   33.4690   51.6580 C.3    27  ALA27       0.0304
     13  N          4.0890   35.0150   51.8260 N.am   28  VAL28      -0.1980
     14  CA         5.3480   35.2620   52.4880 C.3    28  VAL28       0.1595
     15  C          5.0560   36.0150   53.7690 C.2    28  VAL28       0.2287
     16  O          4.1110   36.8300   53.8330 O.2    28  VAL28      -0.2864
     17  CB         6.2480   36.1460   51.5880 C.3    28  VAL28       0.0276
     18  CG1        7.5100   36.5590   52.3070 C.3    28  VAL28       0.0022
     19  CG2        6.5870   35.4120   50.3150 C.3    28  VAL28       0.0022
     20  N         12.4530   37.2170   56.0780 N.3    41  ALA41      -0.1245
     21  CA        11.2870   36.9550   55.2400 C.3    41  ALA41       0.1562
     22  C         11.1430   35.4440   55.0900 C.2    41  ALA41       0.2260
     23  O         12.1150   34.7380   54.7460 O.2    41  ALA41      -0.2867
     24  CB        11.4470   37.5910   53.8920 C.3    41  ALA41       0.0290
     25  N          8.9220   32.4710   53.2590 N.3    43  LYS43      -0.1245
     26  CA         8.0200   32.1270   52.1720 C.3    43  LYS43       0.1561
     27  C          7.6220   30.6730   52.2440 C.2    43  LYS43       0.2260
     28  O          8.4770   29.7840   52.2100 O.2    43  LYS43      -0.2867
     29  CB         8.7210   32.3490   50.8290 C.3    43  LYS43       0.0271
     30  CG         7.8690   32.0500   49.6040 C.3    43  LYS43       0.0035
     31  CD         8.6120   32.3850   48.3340 C.3    43  LYS43       0.0206
     32  CE         7.6480   32.4710   47.1770 C.3    43  LYS43       0.1093
     33  NZ         8.3160   32.9170   45.9250 N.3    43  LYS43      -0.1314
     34  N         18.0160   37.9440   45.6960 N.3    74  ILE74      -0.1245
     35  CA        17.6790   37.4300   47.0110 C.3    74  ILE74       0.1561
     36  C         18.3870   36.1170   47.3340 C.2    74  ILE74       0.2260
     37  O         18.6300   35.2720   46.4550 O.2    74  ILE74      -0.2867
     38  CB        16.1740   37.2560   47.1780 C.3    74  ILE74       0.0252
     39  CG1       15.8410   37.2850   48.6600 C.3    74  ILE74       0.0019
     40  CG2       15.6950   35.9790   46.4990 C.3    74  ILE74       0.0019
     41  CD1       16.2240   38.5940   49.3220 C.3    74  ILE74       0.0001
     42  N         14.5930   34.1280   53.6670 N.3    96  MET96      -0.1231
     43  CA        15.4620   35.1430   53.0880 C.3    96  MET96       0.1687
     44  C         15.4520   36.3390   54.0110 C.2    96  MET96       0.2434
     45  O         14.5540   36.4920   54.8370 O.2    96  MET96      -0.2733
     46  CB        14.9580   35.5960   51.7170 C.3    96  MET96       0.0400
     47  CG        14.7650   34.5000   50.7030 C.3    96  MET96       0.0596
     48  SD        13.0170   34.2130   50.4880 S.3    96  MET96      -0.1393
     49  CE        12.4850   35.8920   49.9970 C.3    96  MET96       0.0692
     50  N         16.4660   37.2020   53.9060 N.am   97  PRO97      -0.2718
     51  CA        16.5520   38.3950   54.7410 C.3    97  PRO97       0.1535
     52  C         15.4220   39.3490   54.4050 C.2    97  PRO97       0.2599
     53  O         15.0120   39.4450   53.2600 O.2    97  PRO97      -0.2715
     54  CB        17.8860   38.9760   54.3310 C.3    97  PRO97       0.0310
     55  CG        18.0920   38.4740   52.9810 C.3    97  PRO97       0.0237
     56  CD        17.6580   37.0800   53.0610 C.3    97  PRO97       0.0939
     57  N         14.8620   40.0190   55.3940 N.am   98  PHE98      -0.1960
     58  CA        13.7760   40.9430   55.0880 C.3    98  PHE98       0.1771
     59  C         14.3840   42.1170   54.3370 C.2    98  PHE98       0.2619
     60  O         15.3600   42.7130   54.7910 O.2    98  PHE98      -0.2715
     61  CB        13.1040   41.4120   56.3520 C.3    98  PHE98       0.0574
     62  CG        11.9640   42.3370   56.1180 C.ar   98  PHE98      -0.0200
     63  CD1       10.7360   41.8410   55.7270 C.ar   98  PHE98      -0.0042
     64  CD2       12.0910   43.7020   56.3710 C.ar   98  PHE98      -0.0042
     65  CE1        9.6270   42.6850   55.5940 C.ar   98  PHE98      -0.0003
     66  CE2       10.9890   44.5550   56.2420 C.ar   98  PHE98      -0.0003
     67  CZ         9.7540   44.0360   55.8530 C.ar   98  PHE98      -0.0000
     68  N         13.8250   42.4230   53.1770 N.am   99  MET99      -0.1963
     69  CA        14.3440   43.4960   52.3620 C.3    99  MET99       0.1736
     70  C         13.5400   44.7770   52.3120 C.2    99  MET99       0.2617
     71  O         13.6630   45.5140   51.3530 O.2    99  MET99      -0.2715
     72  CB        14.5720   42.9960   50.9480 C.3    99  MET99       0.0427
     73  CG        15.9070   42.3560   50.7340 C.3    99  MET99       0.0599
     74  SD        17.2320   43.5580   50.9920 S.3    99  MET99      -0.1393
     75  CE        16.8000   44.8230   49.8830 C.3    99  MET99       0.0692
     76  N         12.7320   45.0570   53.3240 N.am  100  GLY100     -0.1940
     77  CA        11.9770   46.2930   53.3160 C.3   100  GLY100      0.2014
     78  C         10.5630   46.1980   52.7900 C.2   100  GLY100      0.2640
     79  O          9.6230   46.0800   53.5830 O.2   100  GLY100     -0.2714
     80  N         10.3990   46.4030   51.4830 N.am  101  THR101     -0.1936
     81  CA         9.1060   46.3190   50.7880 C.3   101  THR101      0.2028
     82  C          9.4480   46.0650   49.3380 C.2   101  THR101      0.2642
     83  O         10.6180   46.1210   48.9680 O.2   101  THR101     -0.2714
     84  CB         8.2480   47.6210   50.8300 C.3   101  THR101      0.1808
     85  OG1        8.9900   48.7150   50.2850 O.3   101  THR101     -0.2208
     86  CG2        7.7930   47.9510   52.2350 C.3   101  THR101      0.0379
     87  N          8.4450   45.7750   48.5190 N.am  102  ASP102     -0.1971
     88  CA         8.6810   45.5190   47.1080 C.3   102  ASP102      0.1709
     89  C          8.4260   46.8110   46.3520 C.2   102  ASP102      0.2293
     90  O          7.6360   47.6300   46.7960 O.2   102  ASP102     -0.2864
     91  CB         7.7740   44.3950   46.6030 C.3   102  ASP102      0.1436
     92  CG         6.3030   44.7190   46.7570 C.2   102  ASP102      0.3671
     93  OD1        5.8000   45.6230   46.0510 O.co2 102  ASP102     -0.2456
     94  OD2        5.6490   44.0780   47.6020 O.co2 102  ASP102     -0.2456
     95  N          4.7320   48.3210   45.9970 N.3   105  LYS105     -0.1245
     96  CA         4.1660   49.0510   47.1280 C.3   105  LYS105      0.1561
     97  C          4.8810   50.3720   47.2760 C.2   105  LYS105      0.2260
     98  O          4.2650   51.3910   47.5210 O.2   105  LYS105     -0.2867
     99  CB         4.3180   48.2560   48.4340 C.3   105  LYS105      0.0271
    100  CG         3.5650   46.9240   48.4760 C.3   105  LYS105      0.0035
    101  CD         3.6130   46.2830   49.8730 C.3   105  LYS105      0.0206
    102  CE         3.1920   44.7890   49.8720 C.3   105  LYS105      0.1093
    103  NZ         1.8150   44.5100   49.3520 N.3   105  LYS105     -0.1314
    104  N          9.6400   36.6910   35.2030 N.3   140  ASP140     -0.1239
    105  CA         8.5970   37.3280   35.9880 C.3   140  ASP140      0.1674
    106  C          8.9910   38.6370   36.6690 C.2   140  ASP140      0.2266
    107  O          8.5110   38.9490   37.7550 O.2   140  ASP140     -0.2867
    108  CB         8.0340   36.3680   37.0190 C.3   140  ASP140      0.1410
    109  CG         6.6080   36.7380   37.4280 C.2   140  ASP140      0.3668
    110  OD1        5.8300   37.1500   36.5400 O.co2 140  ASP140     -0.2456
    111  OD2        6.2500   36.6400   38.6230 O.co2 140  ASP140     -0.2456
    112  N          8.6730   42.0740   37.7570 N.3   142  LYS142     -0.1245
    113  CA         7.5780   43.0050   37.8540 C.3   142  LYS142      0.1561
    114  C          7.8780   43.7080   39.1370 C.2   142  LYS142      0.2260
    115  O          8.6610   43.2090   39.9310 O.2   142  LYS142     -0.2867
    116  CB         6.2360   42.2850   37.9070 C.3   142  LYS142      0.0271
    117  CG         6.0120   41.3750   39.0860 C.3   142  LYS142      0.0035
    118  CD         4.8320   40.4740   38.8020 C.3   142  LYS142      0.0206
    119  CE         4.3820   39.7770   40.0570 C.3   142  LYS142      0.1093
    120  NZ         2.9600   39.3910   39.9400 N.3   142  LYS142     -0.1314
    121  N          6.3760   43.9140   41.8780 N.3   144  GLY144     -0.1210
    122  CA         6.1410   43.0760   43.0370 C.3   144  GLY144      0.1956
    123  C          7.2090   42.0390   43.3480 C.2   144  GLY144      0.2611
    124  O          7.2120   41.4660   44.4330 O.2   144  GLY144     -0.2717
    125  N          8.0690   41.7440   42.3910 N.am  145  ASN145     -0.1974
    126  CA         9.1390   40.7880   42.6130 C.3   145  ASN145      0.1688
    127  C         10.4730   41.4930   42.6940 C.2   145  ASN145      0.2292
    128  O         11.4760   40.9500   42.2480 O.2   145  ASN145     -0.2864
    129  CB         9.2220   39.7430   41.5050 C.3   145  ASN145      0.1181
    130  CG         7.9940   38.8960   41.4170 C.2   145  ASN145      0.2629
    131  OD1        7.4140   38.5050   42.4360 O.2   145  ASN145     -0.2716
    132  ND2        7.5730   38.6060   40.1900 N.am  145  ASN145     -0.0877
    133  N         12.5590   43.6920   45.6280 N.3   147  ALA147     -0.1245
    134  CA        12.6080   44.2420   46.9830 C.3   147  ALA147      0.1562
    135  C         13.5600   45.4280   47.1110 C.2   147  ALA147      0.2260
    136  O         14.6340   45.4500   46.5210 O.2   147  ALA147     -0.2867
    137  CB        12.9540   43.1610   47.9740 C.3   147  ALA147      0.0290
    138  N         13.4480   39.3490   43.4820 N.3   157  LEU157     -0.1231
    139  CA        12.7500   38.2780   44.1650 C.3   157  LEU157      0.1693
    140  C         12.0470   37.3130   43.2340 C.2   157  LEU157      0.2592
    141  O         12.1330   37.4020   42.0200 O.2   157  LEU157     -0.2718
    142  CB        11.6880   38.8680   45.0870 C.3   157  LEU157      0.0284
    143  CG        12.1380   39.8230   46.1760 C.3   157  LEU157      0.0019
    144  CD1       10.9120   40.4620   46.8000 C.3   157  LEU157      0.0001
    145  CD2       12.9980   39.0880   47.2170 C.3   157  LEU157      0.0001
    146  N         11.3680   36.3570   43.8510 N.am  158  ASP158     -0.1974
    147  CA        10.5350   35.3780   43.1620 C.3   158  ASP158      0.1709
    148  C         11.1100   34.6170   42.0010 C.2   158  ASP158      0.2293
    149  O         10.8580   34.9610   40.8520 O.2   158  ASP158     -0.2864
    150  CB         9.2550   36.0710   42.6900 C.3   158  ASP158      0.1436
    151  CG         8.0750   35.1270   42.5780 C.2   158  ASP158      0.3671
    152  OD1        8.2950   33.8910   42.4660 O.co2 158  ASP158     -0.2456
    153  OD2        6.9230   35.6310   42.6200 O.co2 158  ASP158     -0.2456
    154  N         10.1740   31.7560   41.3410 N.3   160  GLY160     -0.1225
    155  CA         9.1540   30.7300   41.1700 C.3   160  GLY160      0.1811
    156  C          8.8170   30.3440   39.7440 C.2   160  GLY160      0.2280
    157  O          8.2710   29.2680   39.5090 O.2   160  GLY160     -0.2866
@<TRIPOS>BOND
     1   104   105    1
     2   105   106    1
     3   105   108    1
     4   110   109   ar
     5   106   107    2
     6   108   109    1
     7   109   111   ar
     8   112   113    1
     9   113   116    1
    10   113   114    1
    11   116   117    1
    12   118   117    1
    13   118   119    1
    14   114   115    2
    15   157   156    2
    16   156   155    1
    17   120   119    1
    18   132   130   am
    19   149   148    2
    20   155   154    1
    21   130   129    1
    22   130   131    2
    23   129   126    1
    24   121   122    1
    25   148   147    1
    26   141   140    2
    27   128   127    2
    28   125   126    1
    29   125   123   am
    30   152   151   ar
    31   151   153   ar
    32   151   150    1
    33   126   127    1
    34   150   147    1
    35   122   123    1
    36   147   146    1
    37   140   146   am
    38   140   139    1
    39   123   124    2
    40   138   139    1
    41   139   142    1
    42   142   143    1
    43   133   134    1
    44    34    35    1
    45    33    32    1
    46    95    96    1
    47    93    92   ar
    48   143   144    1
    49   143   145    1
    50    89    90    2
    51    89    88    1
    52    37    36    2
    53    40    38    1
    54   136   135    2
    55    91    92    1
    56    91    88    1
    57    92    94   ar
    58   134   135    1
    59   134   137    1
    60    35    38    1
    61    35    36    1
    62    88    87    1
    63    96    97    1
    64    96    99    1
    65    32    31    1
    66    38    39    1
    67    97    98    2
    68    31    30    1
    69    99   100    1
    70   100   101    1
    71    87    82   am
    72    39    41    1
    73    83    82    2
    74    82    81    1
    75   103   102    1
    76     8     9    1
    77    30    29    1
    78   102   101    1
    79    75    74    1
    80    49    48    1
    81    85    84    1
    82    19    17    1
    83    48    47    1
    84     9    10    1
    85     9    12    1
    86    47    46    1
    87    73    72    1
    88    73    74    1
    89    81    84    1
    90    81    80    1
    91    29    26    1
    92    84    86    1
    93    72    69    1
    94     4     3    2
    95    71    70    2
    96    10    11    2
    97    10    13   am
    98    80    78   am
    99    17    18    1
   100    17    14    1
   101    46    43    1
   102    13    14    1
   103     3     2    1
   104    26    27    1
   105    26    25    1
   106    28    27    2
   107    70    69    1
   108    70    76   am
   109    69    68    1
   110    14    15    1
   111    78    77    1
   112    78    79    2
   113    55    56    1
   114    55    54    1
   115    56    50    1
   116    43    42    1
   117    43    44    1
   118    68    59   am
   119    53    52    2
   120    77    76    1
   121     2     5    1
   122     2     1    1
   123     5     7    1
   124     5     6    1
   125    15    16    2
   126    24    21    1
   127    50    44   am
   128    50    51    1
   129    44    45    2
   130    54    51    1
   131    59    60    2
   132    59    58    1
   133    52    51    1
   134    52    57   am
   135    23    22    2
   136    58    57    1
   137    58    61    1
   138    22    21    1
   139    21    20    1
   140    65    63   ar
   141    65    67   ar
   142    63    62   ar
   143    67    66   ar
   144    62    61    1
   145    62    64   ar
   146    66    64   ar
