@<TRIPOS>MOLECULE
tmp/1cmiA00.pdb
 197 193 0 0 0
SMALL
GASTEIGER

@<TRIPOS>ATOM
      1  N         34.3980   20.5760   15.2490 N.3     3  VAL3       -0.1245
      2  CA        33.4630   19.6350   14.6390 C.3     3  VAL3        0.1561
      3  C         34.2320   18.7800   13.6450 C.2     3  VAL3        0.2260
      4  O         34.6360   19.2690   12.5960 O.2     3  VAL3       -0.2867
      5  CB        32.3370   20.3720   13.8760 C.3     3  VAL3        0.0252
      6  CG1       31.4100   19.3670   13.2120 C.3     3  VAL3        0.0019
      7  CG2       31.5610   21.2700   14.8250 C.3     3  VAL3        0.0019
      8  N         35.6600   14.3740    9.0530 N.3     6  ASN6       -0.1240
      9  CA        36.2250   13.1730    8.4540 C.3     6  ASN6        0.1653
     10  C         37.5920   12.9350    9.0830 C.2     6  ASN6        0.2266
     11  O         38.5640   13.6060    8.7450 O.2     6  ASN6       -0.2867
     12  CB        36.3650   13.3790    6.9410 C.3     6  ASN6        0.1155
     13  CG        36.6270   12.0880    6.1880 C.2     6  ASN6        0.2627
     14  OD1       37.4930   11.2950    6.5640 O.2     6  ASN6       -0.2716
     15  ND2       35.8850   11.8780    5.1040 N.am    6  ASN6       -0.0877
     16  N         40.6740   10.0790   10.3060 N.3     8  ASP8       -0.1239
     17  CA        41.2740    8.7810   10.0230 C.3     8  ASP8        0.1674
     18  C         42.2740    8.4550   11.1330 C.2     8  ASP8        0.2266
     19  O         42.6040    7.2970   11.3660 O.2     8  ASP8       -0.2867
     20  CB        42.0050    8.8310    8.6780 C.3     8  ASP8        0.1410
     21  CG        42.0640    7.4750    7.9820 C.2     8  ASP8        0.3668
     22  OD1       42.3700    6.4630    8.6500 O.co2   8  ASP8       -0.2456
     23  OD2       41.8160    7.4280    6.7560 O.co2   8  ASP8       -0.2456
     24  N         40.7940   27.1430    5.3160 N.3    55  GLY55      -0.1210
     25  CA        39.9970   28.0760    4.5440 C.3    55  GLY55       0.1956
     26  C         38.4970   27.8840    4.6470 C.2    55  GLY55       0.2612
     27  O         38.0100   27.0320    5.3860 O.2    55  GLY55      -0.2717
     28  N         37.7580   28.6960    3.9000 N.am   56  ARG56      -0.1965
     29  CA        36.3050   28.6140    3.9160 C.3    56  ARG56       0.1729
     30  C         35.7590   28.0890    2.5930 C.2    56  ARG56       0.2616
     31  O         34.6550   27.5410    2.5570 O.2    56  ARG56      -0.2715
     32  CB        35.6970   29.9890    4.2380 C.3    56  ARG56       0.0348
     33  CG        35.9100   30.4280    5.6920 C.3    56  ARG56       0.0492
     34  CD        35.4130   31.8440    5.9440 C.3    56  ARG56       0.2205
     35  NE        34.0080   32.0110    5.5740 N.pl3  56  ARG56      -0.0865
     36  CZ        32.9760   31.5110    6.2510 C.cat  56  ARG56       0.5346
     37  NH1       33.1700   30.8000    7.3580 N.pl3  56  ARG56       0.1354
     38  NH2       31.7410   31.7120    5.8080 N.pl3  56  ARG56       0.1354
     39  N         36.5320   28.2370    1.5150 N.am   57  ASN57      -0.1958
     40  CA        36.0680   27.7690    0.2190 C.3    57  ASN57       0.1819
     41  C         37.1480   27.1390   -0.6500 C.2    57  ASN57       0.2621
     42  O         38.0090   27.8220   -1.2110 O.2    57  ASN57      -0.2715
     43  CB        35.3930   28.9200   -0.5420 C.3    57  ASN57       0.1195
     44  CG        34.5870   28.4330   -1.7460 C.2    57  ASN57       0.2630
     45  OD1       35.1430   28.0890   -2.7990 O.2    57  ASN57      -0.2716
     46  ND2       33.2650   28.3870   -1.5850 N.am   57  ASN57      -0.0877
     47  N         37.0940   25.8230   -0.7690 N.am   58  PHE58      -0.1960
     48  CA        38.0590   25.1070   -1.5910 C.3    58  PHE58       0.1771
     49  C         37.7090   23.6320   -1.6550 C.2    58  PHE58       0.2620
     50  O         36.9870   23.1080   -0.8030 O.2    58  PHE58      -0.2715
     51  CB        39.4830   25.2740   -1.0230 C.3    58  PHE58       0.0574
     52  CG        39.7170   24.5450    0.2850 C.ar   58  PHE58      -0.0200
     53  CD1       40.1200   23.2160    0.2950 C.ar   58  PHE58      -0.0042
     54  CD2       39.5370   25.1980    1.5060 C.ar   58  PHE58      -0.0042
     55  CE1       40.3440   22.5380    1.5020 C.ar   58  PHE58      -0.0003
     56  CE2       39.7600   24.5320    2.7290 C.ar   58  PHE58      -0.0003
     57  CZ        40.1630   23.2030    2.7250 C.ar   58  PHE58      -0.0000
     58  N         38.2110   22.9750   -2.6900 N.am   59  GLY59      -0.1940
     59  CA        37.9990   21.5530   -2.8540 C.3    59  GLY59       0.2014
     60  C         39.3970   20.9930   -3.0600 C.2    59  GLY59       0.2640
     61  O         40.2790   21.6850   -3.5990 O.2    59  GLY59      -0.2714
     62  N         39.6240   19.7590   -2.6370 N.am   60  SER60      -0.1935
     63  CA        40.9430   19.1830   -2.7930 C.3    60  SER60       0.2055
     64  C         40.8980   17.6830   -2.9950 C.2    60  SER60       0.2643
     65  O         39.9060   17.0260   -2.6640 O.2    60  SER60      -0.2714
     66  CB        41.7760   19.4810   -1.5560 C.3    60  SER60       0.2130
     67  OG        41.2410   18.7890   -0.4400 O.3    60  SER60      -0.2179
     68  N         41.9890   17.1550   -3.5390 N.am   61  TYR61      -0.1959
     69  CA        42.1420   15.7260   -3.7620 C.3    61  TYR61       0.1771
     70  C         43.5950   15.4090   -3.4440 C.2    61  TYR61       0.2619
     71  O         44.5140   15.9080   -4.1040 O.2    61  TYR61      -0.2715
     72  CB        41.8370   15.3560   -5.2140 C.3    61  TYR61       0.0574
     73  CG        41.4540   13.9040   -5.3750 C.ar   61  TYR61      -0.0198
     74  CD1       40.2630   13.4180   -4.8330 C.ar   61  TYR61      -0.0009
     75  CD2       42.2970   13.0090   -6.0270 C.ar   61  TYR61      -0.0009
     76  CE1       39.9200   12.0700   -4.9360 C.ar   61  TYR61       0.0417
     77  CE2       41.9670   11.6560   -6.1350 C.ar   61  TYR61       0.0417
     78  CZ        40.7810   11.1950   -5.5830 C.ar   61  TYR61       0.1957
     79  OH        40.4780    9.8520   -5.6350 O.3    61  TYR61      -0.2866
     80  N         43.8100   14.5750   -2.4360 N.am   62  VAL62      -0.1963
     81  CA        45.1810   14.2570   -2.0320 C.3    62  VAL62       0.1727
     82  C         45.3790   12.7730   -1.7380 C.2    62  VAL62       0.2617
     83  O         44.4130   11.9960   -1.6620 O.2    62  VAL62      -0.2715
     84  CB        45.5910   15.0720   -0.7380 C.3    62  VAL62       0.0290
     85  CG1       45.1520   16.5370   -0.8600 C.3    62  VAL62       0.0023
     86  CG2       44.9470   14.4610    0.4920 C.3    62  VAL62       0.0023
     87  N         46.6420   12.3920   -1.5830 N.am   63  THR63      -0.1937
     88  CA        47.0100   11.0130   -1.2880 C.3    63  THR63       0.2028
     89  C         47.6840   11.0530    0.0800 C.2    63  THR63       0.2642
     90  O         48.6690   11.7590    0.2800 O.2    63  THR63      -0.2714
     91  CB        47.9890   10.4350   -2.3430 C.3    63  THR63       0.1808
     92  OG1       47.3170   10.3150   -3.6030 O.3    63  THR63      -0.2208
     93  CG2       48.4930    9.0530   -1.9070 C.3    63  THR63       0.0379
     94  N         47.1460   10.2880    1.0160 N.am   64  HIS64      -0.1959
     95  CA        47.6680   10.2740    2.3710 C.3    64  HIS64       0.1787
     96  C         47.8910    8.8700    2.9180 C.2    64  HIS64       0.2620
     97  O         47.4520    7.8880    2.3220 O.2    64  HIS64      -0.2715
     98  CB        46.6830   11.0110    3.2800 C.3    64  HIS64       0.0785
     99  CG        45.3080   10.4110    3.2970 C.ar   64  HIS64       0.0821
    100  ND1       44.9340    9.4250    4.1860 N.ar   64  HIS64      -0.2267
    101  CD2       44.2120   10.6700    2.5430 C.ar   64  HIS64       0.1154
    102  CE1       43.6650    9.1100    3.9870 C.ar   64  HIS64       0.1986
    103  NE2       43.2030    9.8520    2.9940 N.ar   64  HIS64      -0.2212
    104  N         48.5740    8.7890    4.0580 N.am   65  GLU65      -0.1963
    105  CA        48.8100    7.5140    4.7220 C.3    65  GLU65       0.1733
    106  C         47.5570    7.2770    5.5480 C.2    65  GLU65       0.2617
    107  O         47.0420    8.2130    6.1690 O.2    65  GLU65      -0.2715
    108  CB        50.0060    7.5910    5.6730 C.3    65  GLU65       0.0429
    109  CG        51.3300    7.9540    5.0360 C.3    65  GLU65       0.1163
    110  CD        52.4800    7.8850    6.0310 C.2    65  GLU65       0.3649
    111  OE1       52.2520    7.4210    7.1750 O.co2  65  GLU65      -0.2457
    112  OE2       53.6100    8.2900    5.6640 O.co2  65  GLU65      -0.2457
    113  N         47.0570    6.0470    5.5600 N.am   66  THR66      -0.1951
    114  CA        45.8570    5.7460    6.3330 C.3    66  THR66       0.1897
    115  C         46.1130    6.0550    7.8010 C.2    66  THR66       0.2313
    116  O         47.2540    6.0400    8.2470 O.2    66  THR66      -0.2863
    117  CB        45.4410    4.2640    6.1900 C.3    66  THR66       0.1794
    118  OG1       46.5170    3.4160    6.6170 O.3    66  THR66      -0.2208
    119  CG2       45.0900    3.9530    4.7450 C.3    66  THR66       0.0378
    120  N         44.8460   11.2830    8.6890 N.3    69  PHE69      -0.1241
    121  CA        44.0450   12.2380    7.9420 C.3    69  PHE69       0.1605
    122  C         42.9240   12.8000    8.7980 C.2    69  PHE69       0.2264
    123  O         42.2680   12.0640    9.5380 O.2    69  PHE69      -0.2867
    124  CB        43.4400   11.5430    6.7120 C.3    69  PHE69       0.0534
    125  CG        42.6090   12.4460    5.8420 C.ar   69  PHE69      -0.0203
    126  CD1       41.2650   12.6670    6.1330 C.ar   69  PHE69      -0.0042
    127  CD2       43.1710   13.0720    4.7320 C.ar   69  PHE69      -0.0042
    128  CE1       40.4880   13.5040    5.3290 C.ar   69  PHE69      -0.0003
    129  CE2       42.4080   13.9100    3.9170 C.ar   69  PHE69      -0.0003
    130  CZ        41.0580   14.1260    4.2190 C.ar   69  PHE69      -0.0000
    131  N         39.8090   16.1180    8.6450 N.3    71  TYR71      -0.1241
    132  CA        39.1360   17.2730    8.0560 C.3    71  TYR71       0.1605
    133  C         38.1150   17.6870    9.1090 C.2    71  TYR71       0.2264
    134  O         37.3030   16.8680    9.5500 O.2    71  TYR71      -0.2867
    135  CB        38.4460   16.8810    6.7380 C.3    71  TYR71       0.0534
    136  CG        37.3640   17.8410    6.2670 C.ar   71  TYR71      -0.0201
    137  CD1       37.5630   19.2210    6.2890 C.ar   71  TYR71      -0.0009
    138  CD2       36.1400   17.3640    5.7840 C.ar   71  TYR71      -0.0009
    139  CE1       36.5770   20.1020    5.8470 C.ar   71  TYR71       0.0417
    140  CE2       35.1470   18.2410    5.3320 C.ar   71  TYR71       0.0417
    141  CZ        35.3740   19.6090    5.3690 C.ar   71  TYR71       0.1957
    142  OH        34.4060   20.4890    4.9270 O.3    71  TYR71      -0.2866
    143  N         36.0100   21.3030   11.3340 N.3    73  TYR73      -0.1241
    144  CA        35.6410   22.7000   11.4710 C.3    73  TYR73       0.1605
    145  C         36.0500   23.2350   12.8280 C.2    73  TYR73       0.2264
    146  O         35.8940   22.5630   13.8480 O.2    73  TYR73      -0.2867
    147  CB        34.1260   22.8750   11.3210 C.3    73  TYR73       0.0534
    148  CG        33.5960   22.7570    9.9110 C.ar   73  TYR73      -0.0201
    149  CD1       34.4590   22.6470    8.8270 C.ar   73  TYR73      -0.0009
    150  CD2       32.2220   22.8010    9.6590 C.ar   73  TYR73      -0.0009
    151  CE1       33.9780   22.5860    7.5310 C.ar   73  TYR73       0.0417
    152  CE2       31.7260   22.7440    8.3610 C.ar   73  TYR73       0.0417
    153  CZ        32.6140   22.6370    7.3010 C.ar   73  TYR73       0.1957
    154  OH        32.1480   22.5900    6.0070 O.3    73  TYR73      -0.2866
    155  N         35.9000   27.2040   14.6480 N.3    75  GLY75      -0.1210
    156  CA        35.5710   28.5970   14.4320 C.3    75  GLY75       0.1956
    157  C         34.7590   28.5950   13.1510 C.2    75  GLY75       0.2612
    158  O         33.8710   27.7530   12.9930 O.2    75  GLY75      -0.2717
    159  N         35.0630   29.5090   12.2310 N.am   76  GLN76      -0.1965
    160  CA        34.3410   29.5660   10.9610 C.3    76  GLN76       0.1733
    161  C         35.2410   29.0830    9.8250 C.2    76  GLN76       0.2616
    162  O         34.9680   29.3270    8.6480 O.2    76  GLN76      -0.2715
    163  CB        33.8580   30.9910   10.6630 C.3    76  GLN76       0.0408
    164  CG        34.9790   31.9770   10.3960 C.3    76  GLN76       0.0908
    165  CD        35.8010   32.2530   11.6330 C.2    76  GLN76       0.2608
    166  OE1       35.4140   33.0610   12.4800 O.2    76  GLN76      -0.2717
    167  NE2       36.9350   31.5690   11.7570 N.am   76  GLN76      -0.0878
    168  N         36.3130   28.3880   10.1860 N.am   77  VAL77      -0.1963
    169  CA        37.2450   27.8830    9.1970 C.3    77  VAL77       0.1727
    170  C         37.2500   26.3540    9.1740 C.2    77  VAL77       0.2616
    171  O         36.8070   25.6940   10.1240 O.2    77  VAL77      -0.2715
    172  CB        38.6740   28.4160    9.4740 C.3    77  VAL77       0.0290
    173  CG1       39.4500   27.4460   10.3470 C.3    77  VAL77       0.0023
    174  CG2       39.3940   28.6540    8.1710 C.3    77  VAL77       0.0023
    175  N         37.7260   25.8000    8.0650 N.am   78  ALA78      -0.1977
    176  CA        37.8130   24.3560    7.9040 C.3    78  ALA78       0.1597
    177  C         39.2860   24.0210    7.7680 C.2    78  ALA78       0.2287
    178  O         40.0470   24.7300    7.0930 O.2    78  ALA78      -0.2864
    179  CB        37.0640   23.9050    6.6580 C.3    78  ALA78       0.0319
    180  N         42.1720   20.9970    6.8840 N.3    80  LEU80      -0.1245
    181  CA        42.4920   19.7110    6.2980 C.3    80  LEU80       0.1561
    182  C         43.9600   19.4680    6.6450 C.2    80  LEU80       0.2260
    183  O         44.8370   20.2290    6.2200 O.2    80  LEU80      -0.2867
    184  CB        42.3090   19.7460    4.7750 C.3    80  LEU80       0.0270
    185  CG        42.9010   18.5600    3.9990 C.3    80  LEU80       0.0019
    186  CD1       42.2830   17.2730    4.5000 C.3    80  LEU80       0.0001
    187  CD2       42.6580   18.7120    2.4950 C.3    80  LEU80       0.0001
    188  N         51.7010   12.5940    4.1170 N.3    84  SER84      -0.1202
    189  CA        52.0080   11.8440    2.9120 C.3    84  SER84       0.2020
    190  C         53.5190   11.9170    2.7630 C.2    84  SER84       0.2619
    191  O         54.0680   12.9750    2.4330 O.2    84  SER84      -0.2717
    192  CB        51.3380   12.4680    1.6900 C.3    84  SER84       0.2103
    193  OG        52.0080   13.6550    1.3120 O.3    84  SER84      -0.2182
    194  N         54.1850   10.7940    3.0260 N.am   85  GLY85      -0.1956
    195  CA        55.6330   10.7520    2.9350 C.3    85  GLY85       0.1869
    196  C         56.2910   10.9280    4.2950 C.2    85  GLY85       0.2309
    197  O         55.5630   10.9810    5.3110 O.2    85  GLY85      -0.2863
@<TRIPOS>BOND
     1    77    75   ar
     2    77    78   ar
     3    75    73   ar
     4    79    78    1
     5    78    76   ar
     6    73    72    1
     7    73    74   ar
     8    72    69    1
     9    76    74   ar
    10    71    70    2
    11    69    68    1
    12    69    70    1
    13    92    91    1
    14    61    60    2
    15    68    64   am
    16    70    80   am
    17    60    59    1
    18    60    62   am
    19    64    63    1
    20    64    65    2
    21    59    58    1
    22    45    44    2
    23    63    62    1
    24    63    66    1
    25    58    49   am
    26    80    81    1
    27    91    93    1
    28    91    88    1
    29    81    82    1
    30    81    84    1
    31    44    46   am
    32    44    43    1
    33    82    83    2
    34    82    87   am
    35    49    48    1
    36    49    50    2
    37    48    51    1
    38    48    47    1
    39    87    88    1
    40    66    67    1
    41    88    89    1
    42    42    41    2
    43    51    52    1
    44    85    84    1
    45    47    41   am
    46    84    86    1
    47    41    40    1
    48    43    40    1
    49    89    90    2
    50    89    94   am
    51    40    39    1
    52    52    53   ar
    53    52    54   ar
    54    53    55   ar
    55    94    95    1
    56   193   192    1
    57    55    57   ar
    58    54    56   ar
    59    39    30   am
    60   192   189    1
    61    97    96    2
    62    95    96    1
    63    95    98    1
    64   191   190    2
    65   187   185    1
    66   101   103   ar
    67   101    99   ar
    68    31    30    2
    69    30    29    1
    70    57    56   ar
    71   190   189    1
    72   190   194   am
    73   189   188    1
    74    96   104   am
    75   195   194    1
    76   195   196    1
    77   103   102   ar
    78    98    99    1
    79    99   100   ar
    80    28    29    1
    81    28    26   am
    82    29    32    1
    83   129   130   ar
    84   129   127   ar
    85   102   100   ar
    86   185   186    1
    87   185   184    1
    88   104   105    1
    89   130   128   ar
    90    32    33    1
    91   196   197    2
    92    25    26    1
    93    25    24    1
    94    26    27    2
    95   105   106    1
    96   105   108    1
    97   127   125   ar
    98   119   117    1
    99   184   181    1
   100   142   141    1
   101   109   108    1
   102   109   110    1
   103    15    13   am
   104   128   126   ar
   105   140   141   ar
   106   140   138   ar
   107   141   139   ar
   108   106   113   am
   109   106   107    2
   110   113   114    1
   111    35    34    1
   112    35    36    2
   113   112   110   ar
   114    33    34    1
   115   138   136   ar
   116    38    36    1
   117   125   126   ar
   118   125   124    1
   119   139   137   ar
   120   154   153    1
   121   110   111   ar
   122    13    14    2
   123    13    12    1
   124   117   114    1
   125   117   118    1
   126   183   182    2
   127    36    37    1
   128   136   137   ar
   129   136   135    1
   130   181   182    1
   131   181   180    1
   132   114   115    1
   133   179   176    1
   134   124   121    1
   135   135   132    1
   136    23    21   ar
   137    12     9    1
   138   178   177    2
   139   153   151   ar
   140   153   152   ar
   141   151   149   ar
   142   177   176    1
   143   115   116    2
   144   176   175    1
   145   121   120    1
   146   121   122    1
   147    21    22   ar
   148    21    20    1
   149   132   131    1
   150   132   133    1
   151   175   170   am
   152   174   172    1
   153   152   150   ar
   154     9     8    1
   155     9    10    1
   156   162   161    2
   157    20    17    1
   158    11    10    2
   159   122   123    2
   160   149   148   ar
   161   133   134    2
   162   170   169    1
   163   170   171    2
   164   169   172    1
   165   169   168    1
   166   172   173    1
   167   150   148   ar
   168   161   168   am
   169   161   160    1
   170   148   147    1
   171    17    16    1
   172    17    18    1
   173   164   163    1
   174   164   165    1
   175   163   160    1
   176   160   159    1
   177    18    19    2
   178   147   144    1
   179   143   144    1
   180   144   145    1
   181   165   167   am
   182   165   166    2
   183   159   157   am
   184     4     3    2
   185   145   146    2
   186   158   157    2
   187   157   156    1
   188     6     5    1
   189     3     2    1
   190     5     2    1
   191     5     7    1
   192   156   155    1
   193     2     1    1
