@<TRIPOS>MOLECULE
tmp/1cmlA01.pdb
 151 144 0 0 0
SMALL
GASTEIGER

@<TRIPOS>ATOM
      1  N         21.7120   54.9830   56.5980 N.3   164  ALA164     -0.1245
      2  CA        21.9580   55.6450   55.3260 C.3   164  ALA164      0.1562
      3  C         22.4170   57.0770   55.4170 C.2   164  ALA164      0.2260
      4  O         22.8380   57.5680   54.3660 O.2   164  ALA164     -0.2867
      5  CB        20.7170   55.5570   54.4390 C.3   164  ALA164      0.0290
      6  N          9.5530   47.6300   49.8660 N.3   210  VAL210     -0.1231
      7  CA        10.1180   48.7290   49.0550 C.3   210  VAL210      0.1692
      8  C         11.6270   48.7730   49.1740 C.2   210  VAL210      0.2592
      9  O         12.2980   49.1140   48.1820 O.2   210  VAL210     -0.2718
     10  CB         9.4100   50.0470   49.3290 C.3   210  VAL210      0.0266
     11  CG1        9.6770   50.5380   50.7510 C.3   210  VAL210      0.0020
     12  CG2        9.7910   51.0890   48.2840 C.3   210  VAL210      0.0020
     13  N         12.2200   48.3650   50.2990 N.am  211  GLY211     -0.1957
     14  CA        13.6750   48.2520   50.3820 C.3   211  GLY211      0.1869
     15  C         14.2470   47.2700   49.3650 C.2   211  GLY211      0.2309
     16  O         15.3520   47.4430   48.8160 O.2   211  GLY211     -0.2863
     17  N         14.8850   48.9490   46.1060 N.3   214  LEU214     -0.1231
     18  CA        15.8330   50.0410   46.0690 C.3   214  LEU214      0.1693
     19  C         17.2640   49.7850   46.4890 C.2   214  LEU214      0.2592
     20  O         18.1880   50.4110   45.9550 O.2   214  LEU214     -0.2718
     21  CB        15.3410   51.1600   47.0260 C.3   214  LEU214      0.0284
     22  CG        13.8990   51.6240   46.7980 C.3   214  LEU214      0.0019
     23  CD1       13.5050   52.5980   47.9100 C.3   214  LEU214      0.0001
     24  CD2       13.7710   52.2980   45.4280 C.3   214  LEU214      0.0001
     25  N         17.4890   48.8780   47.4470 N.am  215  PHE215     -0.1976
     26  CA        18.8270   48.7040   47.9990 C.3   215  PHE215      0.1639
     27  C         19.8060   47.9510   47.0940 C.2   215  PHE215      0.2290
     28  O         19.5660   46.8400   46.6300 O.2   215  PHE215     -0.2864
     29  CB        18.7350   47.9700   49.3550 C.3   215  PHE215      0.0560
     30  CG        17.9060   48.6210   50.4370 C.ar  215  PHE215     -0.0200
     31  CD1       17.7390   49.9770   50.4870 C.ar  215  PHE215     -0.0042
     32  CD2       17.3150   47.8370   51.4320 C.ar  215  PHE215     -0.0042
     33  CE1       16.9840   50.5920   51.4740 C.ar  215  PHE215     -0.0003
     34  CE2       16.5610   48.4440   52.4310 C.ar  215  PHE215     -0.0003
     35  CZ        16.3970   49.8050   52.4550 C.ar  215  PHE215     -0.0000
     36  N         12.1720   55.6000   60.1960 N.3   254  ILE254     -0.1245
     37  CA        13.0000   54.5320   59.6320 C.3   254  ILE254      0.1561
     38  C         13.6570   53.7640   60.7800 C.2   254  ILE254      0.2260
     39  O         14.5850   54.3080   61.3790 O.2   254  ILE254     -0.2867
     40  CB        14.0910   55.0690   58.6890 C.3   254  ILE254      0.0252
     41  CG1       13.6220   55.9590   57.5460 C.3   254  ILE254      0.0019
     42  CG2       14.8770   53.8660   58.1230 C.3   254  ILE254      0.0019
     43  CD1       14.7030   56.7740   56.8640 C.3   254  ILE254      0.0001
     44  N         14.0190   46.3540   58.1080 N.3   265  PHE265     -0.1241
     45  CA        13.6050   47.7420   58.2270 C.3   265  PHE265      0.1605
     46  C         12.0990   47.8360   58.4560 C.2   265  PHE265      0.2264
     47  O         11.2680   47.0000   58.1250 O.2   265  PHE265     -0.2867
     48  CB        13.9640   48.5740   56.9830 C.3   265  PHE265      0.0534
     49  CG        15.4310   48.9070   56.9360 C.ar  265  PHE265     -0.0203
     50  CD1       15.9300   49.9200   57.7320 C.ar  265  PHE265     -0.0042
     51  CD2       16.3000   48.1890   56.1220 C.ar  265  PHE265     -0.0042
     52  CE1       17.2750   50.2340   57.7030 C.ar  265  PHE265     -0.0003
     53  CE2       17.6470   48.5050   56.0870 C.ar  265  PHE265     -0.0003
     54  CZ        18.1280   49.5200   56.8810 C.ar  265  PHE265     -0.0000
     55  N          9.0910   51.0990   58.3200 N.3   267  LEU267     -0.1245
     56  CA         8.8310   52.4770   57.9660 C.3   267  LEU267      0.1561
     57  C          7.5030   52.8820   58.5920 C.2   267  LEU267      0.2260
     58  O          6.5020   52.1750   58.4070 O.2   267  LEU267     -0.2867
     59  CB         8.7630   52.7000   56.4510 C.3   267  LEU267      0.0270
     60  CG         9.9580   52.2670   55.5930 C.3   267  LEU267      0.0019
     61  CD1        9.6230   52.4550   54.1180 C.3   267  LEU267      0.0001
     62  CD2       11.2090   53.0400   55.9730 C.3   267  LEU267      0.0001
     63  N          6.0110   59.3440   56.7300 N.3   270  ASP270     -0.1225
     64  CA         6.2140   59.6830   55.3150 C.3   270  ASP270      0.1805
     65  C          7.6070   60.2780   55.1920 C.2   270  ASP270      0.2598
     66  O          7.7990   61.4630   55.4680 O.2   270  ASP270     -0.2718
     67  CB         5.1110   60.6470   54.9060 C.3   270  ASP270      0.1424
     68  CG         5.2440   61.1830   53.4840 C.2   270  ASP270      0.3668
     69  OD1        6.1890   60.8000   52.7670 O.co2 270  ASP270     -0.2456
     70  OD2        4.3890   61.9880   53.0890 O.co2 270  ASP270     -0.2456
     71  N          8.5890   59.4560   54.8260 N.am  271  VAL271     -0.1966
     72  CA         9.9680   59.9540   54.7410 C.3   271  VAL271      0.1712
     73  C         10.1600   61.0900   53.7640 C.2   271  VAL271      0.2458
     74  O         10.7320   62.1290   54.1040 O.2   271  VAL271     -0.2730
     75  CB        10.9400   58.7840   54.5040 C.3   271  VAL271      0.0289
     76  CG1       12.3280   59.2550   54.1240 C.3   271  VAL271      0.0023
     77  CG2       10.9860   57.8950   55.7680 C.3   271  VAL271      0.0023
     78  N          9.7100   60.9960   52.5080 N.am  272  PRO272     -0.2727
     79  CA         9.7850   62.1090   51.5740 C.3   272  PRO272      0.1402
     80  C          9.1550   63.3710   52.1330 C.2   272  PRO272      0.2269
     81  O          9.6940   64.4590   52.0100 O.2   272  PRO272     -0.2865
     82  CB         9.0650   61.5950   50.3250 C.3   272  PRO272      0.0296
     83  CG         9.2170   60.1080   50.3940 C.3   272  PRO272      0.0237
     84  CD         9.1520   59.7780   51.8870 C.3   272  PRO272      0.0939
     85  N         21.2740   62.2400   49.5090 N.3   303  HIS303     -0.1241
     86  CA        21.1500   60.7840   49.5530 C.3   303  HIS303      0.1621
     87  C         19.8580   60.3750   48.8630 C.2   303  HIS303      0.2264
     88  O         18.7900   60.7800   49.3180 O.2   303  HIS303     -0.2867
     89  CB        21.1420   60.3650   51.0520 C.3   303  HIS303      0.0745
     90  CG        20.8630   58.9000   51.1380 C.ar  303  HIS303      0.0817
     91  ND1       21.7110   57.9740   50.6000 N.ar  303  HIS303     -0.2268
     92  CD2       19.7970   58.2260   51.6430 C.ar  303  HIS303      0.1154
     93  CE1       21.1760   56.7660   50.7610 C.ar  303  HIS303      0.1986
     94  NE2       20.0340   56.8980   51.4140 N.ar  303  HIS303     -0.2212
     95  N         17.4970   58.1990   48.9240 N.3   305  GLY305     -0.1210
     96  CA        16.8450   57.0990   49.6480 C.3   305  GLY305      0.1956
     97  C         15.7820   56.4020   48.7960 C.2   305  GLY305      0.2612
     98  O         15.6430   55.1870   48.7730 O.2   305  GLY305     -0.2717
     99  N         15.0310   57.2290   48.0780 N.am  306  GLY306     -0.1956
    100  CA        14.1530   56.7940   46.9860 C.3   306  GLY306      0.1869
    101  C         13.9600   58.0240   46.1100 C.2   306  GLY306      0.2309
    102  O         14.2150   59.1580   46.5080 O.2   306  GLY306     -0.2863
    103  N         11.1890   59.5310   45.3850 N.3   308  ALA308     -0.1231
    104  CA        10.2020   60.4880   45.9220 C.3   308  ALA308      0.1694
    105  C         10.8470   61.5150   46.8490 C.2   308  ALA308      0.2591
    106  O         10.3590   62.6430   46.9330 O.2   308  ALA308     -0.2718
    107  CB         9.1370   59.7250   46.7000 C.3   308  ALA308      0.0304
    108  N         11.8900   61.1500   47.6040 N.am  309  ILE309     -0.1980
    109  CA        12.5970   62.1170   48.4280 C.3   309  ILE309      0.1595
    110  C         13.1040   63.2530   47.5300 C.2   309  ILE309      0.2287
    111  O         12.9290   64.4310   47.7810 O.2   309  ILE309     -0.2864
    112  CB        13.8000   61.5220   49.1830 C.3   309  ILE309      0.0276
    113  CG1       13.2690   60.5010   50.2100 C.3   309  ILE309      0.0022
    114  CG2       14.5680   62.6350   49.8810 C.3   309  ILE309      0.0022
    115  CD1       14.3650   59.6940   50.9020 C.3   309  ILE309      0.0001
    116  N         20.1450   52.5170   45.7220 N.3   336  ASN336     -0.1240
    117  CA        20.4040   53.0990   47.0510 C.3   336  ASN336      0.1653
    118  C         21.4170   52.1880   47.7590 C.2   336  ASN336      0.2266
    119  O         21.0920   51.1190   48.2870 O.2   336  ASN336     -0.2867
    120  CB        19.0640   53.1690   47.7980 C.3   336  ASN336      0.1155
    121  CG        19.1590   53.6020   49.2480 C.2   336  ASN336      0.2627
    122  OD1       20.2530   53.7100   49.8000 O.2   336  ASN336     -0.2716
    123  ND2       18.0090   53.8440   49.8730 N.am  336  ASN336     -0.0877
    124  N         22.9750   52.8960   50.5910 N.3   338  SER338     -0.1217
    125  CA        23.1070   53.3570   51.9770 C.3   338  SER338      0.1889
    126  C         24.2040   54.4010   52.0920 C.2   338  SER338      0.2288
    127  O         24.2210   55.3310   51.2620 O.2   338  SER338     -0.2866
    128  CB        23.3340   52.1500   52.8990 C.3   338  SER338      0.2089
    129  OG        23.2760   52.5920   54.2770 O.3   338  SER338     -0.2183
    130  N         20.4210   61.1890   54.7260 N.3   373  PHE373     -0.1227
    131  CA        19.1400   60.9970   55.3960 C.3   373  PHE373      0.1736
    132  C         19.0640   59.5620   55.8950 C.2   373  PHE373      0.2596
    133  O         19.5530   58.6760   55.1760 O.2   373  PHE373     -0.2718
    134  CB        17.9430   61.1930   54.4280 C.3   373  PHE373      0.0547
    135  CG        18.0100   62.4470   53.6090 C.ar  373  PHE373     -0.0202
    136  CD1       18.0780   63.6920   54.2000 C.ar  373  PHE373     -0.0042
    137  CD2       17.9460   62.3490   52.2080 C.ar  373  PHE373     -0.0042
    138  CE1       18.1490   64.8400   53.4320 C.ar  373  PHE373     -0.0003
    139  CE2       17.9950   63.5030   51.4480 C.ar  373  PHE373     -0.0003
    140  CZ        18.0950   64.7510   52.0450 C.ar  373  PHE373     -0.0000
    141  N         18.4500   59.3110   57.0470 N.am  374  GLY374     -0.1943
    142  CA        18.4100   57.9280   57.5400 C.3   374  GLY374      0.1998
    143  C         17.6720   57.8520   58.8790 C.2   374  GLY374      0.2480
    144  O         16.9950   58.8150   59.2420 O.2   374  GLY374     -0.2729
    145  N         17.7790   56.7280   59.5530 N.am  375  PRO375     -0.2726
    146  CA        17.0860   56.5130   60.8180 C.3   375  PRO375      0.1402
    147  C         17.2190   57.6570   61.8090 C.2   375  PRO375      0.2269
    148  O         18.2930   58.1790   62.0800 O.2   375  PRO375     -0.2865
    149  CB        17.7870   55.2720   61.4160 C.3   375  PRO375      0.0296
    150  CG        18.1650   54.4960   60.1790 C.3   375  PRO375      0.0237
    151  CD        18.5970   55.5520   59.1580 C.3   375  PRO375      0.0939
@<TRIPOS>BOND
     1   103   104    1
     2    24    22    1
     3   116   117    1
     4   104   107    1
     5   104   105    1
     6    20    19    2
     7    18    17    1
     8    18    19    1
     9    18    21    1
    10   101   102    2
    11   101   100    1
    12    19    25   am
    13    28    27    2
    14    22    21    1
    15    22    23    1
    16   105   106    2
    17   105   108   am
    18   100    99    1
    19   117   118    1
    20   117   120    1
    21    27    26    1
    22    25    26    1
    23   110   111    2
    24   110   109    1
    25   108   109    1
    26   118   119    2
    27   120   121    1
    28    26    29    1
    29    99    97   am
    30     9     8    2
    31    12    10    1
    32   109   112    1
    33    98    97    2
    34    97    96    1
    35    16    15    2
    36    87    88    2
    37    87    86    1
    38    95    96    1
    39     7     8    1
    40     7    10    1
    41     7     6    1
    42     8    13   am
    43   112   114    1
    44   112   113    1
    45   121   122    2
    46   121   123   am
    47    10    11    1
    48    29    30    1
    49    15    14    1
    50    85    86    1
    51    86    89    1
    52   113   115    1
    53    13    14    1
    54    82    83    1
    55    82    79    1
    56    83    84    1
    57    30    31   ar
    58    30    32   ar
    59    31    33   ar
    60   124   125    1
    61    91    93   ar
    62    91    90   ar
    63    93    94   ar
    64    89    90    1
    65    90    92   ar
    66   127   126    2
    67    94    92   ar
    68    32    34   ar
    69   139   140   ar
    70   139   137   ar
    71    33    35   ar
    72    79    80    1
    73    79    78    1
    74    84    78    1
    75   125   126    1
    76   125   128    1
    77    81    80    2
    78   140   138   ar
    79   137   135   ar
    80    34    35   ar
    81    78    73   am
    82    69    68   ar
    83   128   129    1
    84    70    68   ar
    85   138   136   ar
    86    68    67    1
    87   135   136   ar
    88   135   134    1
    89    73    74    2
    90    73    72    1
    91    61    60    1
    92    76    75    1
    93     4     3    2
    94   134   131    1
    95     5     2    1
    96    75    72    1
    97    75    77    1
    98   130   131    1
    99    72    71    1
   100    71    65   am
   101    67    64    1
   102   133   132    2
   103    65    64    1
   104    65    66    2
   105    64    63    1
   106     2     3    1
   107     2     1    1
   108   131   132    1
   109    60    62    1
   110    60    59    1
   111   132   141   am
   112    53    51   ar
   113    53    54   ar
   114    51    49   ar
   115    59    56    1
   116    43    41    1
   117    54    52   ar
   118    49    48    1
   119    49    50   ar
   120    48    45    1
   121   141   142    1
   122   142   143    1
   123    41    40    1
   124    52    50   ar
   125    56    55    1
   126    56    57    1
   127    44    45    1
   128    42    40    1
   129    47    46    2
   130    45    46    1
   131    58    57    2
   132    40    37    1
   133   143   144    2
   134   143   145   am
   135   151   145    1
   136   151   150    1
   137   145   146    1
   138    37    36    1
   139    37    38    1
   140   150   149    1
   141    38    39    2
   142   146   149    1
   143   146   147    1
   144   147   148    2
