@<TRIPOS>MOLECULE
tmp/1cmlA00.pdb
 197 189 0 0 0
SMALL
GASTEIGER

@<TRIPOS>ATOM
      1  N          2.3260   44.8170   42.9720 N.3    55  LYS55      -0.1245
      2  CA         2.7660   45.9680   43.7500 C.3    55  LYS55       0.1561
      3  C          4.2800   46.1530   43.6720 C.2    55  LYS55       0.2260
      4  O          4.7500   47.2890   43.5920 O.2    55  LYS55      -0.2867
      5  CB         2.3570   45.8480   45.2150 C.3    55  LYS55       0.0271
      6  CG         0.8730   45.7940   45.5320 C.3    55  LYS55       0.0035
      7  CD         0.6290   46.1810   46.9950 C.3    55  LYS55       0.0206
      8  CE        -0.4880   45.4500   47.6720 C.3    55  LYS55       0.1093
      9  NZ        -1.6670   45.1360   46.8280 N.3    55  LYS55      -0.1314
     10  N          5.2320   47.6940   40.3530 N.3    58  ARG58      -0.1231
     11  CA         4.9980   49.1230   40.4050 C.3    58  ARG58       0.1694
     12  C          6.0830   49.8480   41.2070 C.2    58  ARG58       0.2591
     13  O          6.6280   50.8440   40.7280 O.2    58  ARG58      -0.2718
     14  CB         3.5950   49.4260   40.9500 C.3    58  ARG58       0.0321
     15  CG         2.5180   49.0860   39.9150 C.3    58  ARG58       0.0489
     16  CD         1.1110   49.1900   40.4720 C.3    58  ARG58       0.2205
     17  NE         0.3330   47.9760   40.2730 N.pl3  58  ARG58      -0.0865
     18  CZ        -0.3050   47.2230   41.1450 C.cat  58  ARG58       0.5346
     19  NH1       -0.3740   47.4510   42.4500 N.pl3  58  ARG58       0.1354
     20  NH2       -0.9060   46.1620   40.6130 N.pl3  58  ARG58       0.1354
     21  N          6.5520   49.2300   42.2920 N.am   59  MET59      -0.1979
     22  CA         7.6700   49.7970   43.0460 C.3    59  MET59       0.1605
     23  C          8.9310   49.8780   42.1890 C.2    59  MET59       0.2287
     24  O          9.6060   50.9200   42.1620 O.2    59  MET59      -0.2864
     25  CB         7.9800   48.9580   44.2950 C.3    59  MET59       0.0413
     26  CG         6.8990   49.0690   45.3650 C.3    59  MET59       0.0598
     27  SD         7.2810   47.9210   46.7160 S.3    59  MET59      -0.1393
     28  CE         5.8310   48.1410   47.7490 C.3    59  MET59       0.0692
     29  N          8.6250   52.5190   39.4360 N.3    62  LYS62      -0.1231
     30  CA         8.7410   53.9090   39.8740 C.3    62  LYS62       0.1693
     31  C         10.0780   54.2050   40.5350 C.2    62  LYS62       0.2593
     32  O         10.3550   55.3760   40.8310 O.2    62  LYS62      -0.2718
     33  CB         7.5920   54.2340   40.8330 C.3    62  LYS62       0.0285
     34  CG         6.2070   54.2530   40.1990 C.3    62  LYS62       0.0035
     35  CD         6.1960   54.7800   38.7700 C.3    62  LYS62       0.0206
     36  CE         5.0420   55.7030   38.4410 C.3    62  LYS62       0.1093
     37  NZ         5.2940   56.4370   37.1540 N.3    62  LYS62      -0.1314
     38  N         10.9240   53.2030   40.7420 N.am   63  SER63      -0.1938
     39  CA        12.1590   53.3640   41.4800 C.3    63  SER63       0.2055
     40  C         13.1360   54.3590   40.8980 C.2    63  SER63       0.2642
     41  O         14.0460   54.8850   41.5640 O.2    63  SER63      -0.2714
     42  CB        12.8760   52.0080   41.6460 C.3    63  SER63       0.2130
     43  OG        13.3540   51.5240   40.3920 O.3    63  SER63      -0.2179
     44  N         13.1440   54.4800   39.5590 N.am   64  MET64      -0.1976
     45  CA        14.0870   55.2520   38.7850 C.3    64  MET64       0.1605
     46  C         15.4890   54.6440   38.8430 C.2    64  MET64       0.2287
     47  O         16.4860   55.3330   38.6690 O.2    64  MET64      -0.2864
     48  CB        14.1100   56.7370   39.1370 C.3    64  MET64       0.0413
     49  CG        12.7370   57.4130   39.0550 C.3    64  MET64       0.0598
     50  SD        12.0590   57.2330   37.3740 S.3    64  MET64      -0.1393
     51  CE        10.4270   56.6310   37.7010 C.3    64  MET64       0.0692
     52  N          4.8280   45.7080   53.6400 N.3   206  LEU206     -0.1231
     53  CA         5.1710   46.4300   52.4180 C.3   206  LEU206      0.1693
     54  C          6.3170   47.4070   52.5490 C.2   206  LEU206      0.2592
     55  O          7.0100   47.7010   51.5540 O.2   206  LEU206     -0.2718
     56  CB         3.9390   47.1600   51.8690 C.3   206  LEU206      0.0284
     57  CG         2.7390   46.2560   51.5650 C.3   206  LEU206      0.0019
     58  CD1        1.5950   47.1390   51.0890 C.3   206  LEU206      0.0001
     59  CD2        3.0910   45.1910   50.5390 C.3   206  LEU206      0.0001
     60  N          6.5690   47.8930   53.7760 N.am  207  ASP207     -0.1960
     61  CA         7.7160   48.7550   54.0500 C.3   207  ASP207      0.1840
     62  C          9.0070   47.9890   53.8610 C.2   207  ASP207      0.2622
     63  O          9.9700   48.5060   53.2900 O.2   207  ASP207     -0.2715
     64  CB         7.5990   49.3370   55.4660 C.3   207  ASP207      0.1450
     65  CG         7.3770   48.3570   56.5930 C.2   207  ASP207      0.3671
     66  OD1        6.9560   47.1890   56.4730 O.co2 207  ASP207     -0.2456
     67  OD2        7.5940   48.8220   57.7500 O.co2 207  ASP207     -0.2456
     68  N          9.0320   46.7000   54.2390 N.am  208  SER208     -0.1950
     69  CA        10.2160   45.8880   53.9670 C.3   208  SER208      0.1924
     70  C         10.3980   45.6400   52.4670 C.2   208  SER208      0.2314
     71  O         11.5170   45.6420   51.9120 O.2   208  SER208     -0.2863
     72  CB        10.1100   44.5700   54.7260 C.3   208  SER208      0.2116
     73  OG        11.2240   43.7540   54.4700 O.3   208  SER208     -0.2180
     74  N          9.5530   47.6300   49.8660 N.3   210  VAL210     -0.1231
     75  CA        10.1180   48.7290   49.0550 C.3   210  VAL210      0.1692
     76  C         11.6270   48.7730   49.1740 C.2   210  VAL210      0.2592
     77  O         12.2980   49.1140   48.1820 O.2   210  VAL210     -0.2718
     78  CB         9.4100   50.0470   49.3290 C.3   210  VAL210      0.0266
     79  CG1        9.6770   50.5380   50.7510 C.3   210  VAL210      0.0020
     80  CG2        9.7910   51.0890   48.2840 C.3   210  VAL210      0.0020
     81  N         12.2200   48.3650   50.2990 N.am  211  GLY211     -0.1957
     82  CA        13.6750   48.2520   50.3820 C.3   211  GLY211      0.1869
     83  C         14.2470   47.2700   49.3650 C.2   211  GLY211      0.2309
     84  O         15.3520   47.4430   48.8160 O.2   211  GLY211     -0.2863
     85  N         14.8850   48.9490   46.1060 N.3   214  LEU214     -0.1231
     86  CA        15.8330   50.0410   46.0690 C.3   214  LEU214      0.1693
     87  C         17.2640   49.7850   46.4890 C.2   214  LEU214      0.2592
     88  O         18.1880   50.4110   45.9550 O.2   214  LEU214     -0.2718
     89  CB        15.3410   51.1600   47.0260 C.3   214  LEU214      0.0284
     90  CG        13.8990   51.6240   46.7980 C.3   214  LEU214      0.0019
     91  CD1       13.5050   52.5980   47.9100 C.3   214  LEU214      0.0001
     92  CD2       13.7710   52.2980   45.4280 C.3   214  LEU214      0.0001
     93  N         17.4890   48.8780   47.4470 N.am  215  PHE215     -0.1976
     94  CA        18.8270   48.7040   47.9990 C.3   215  PHE215      0.1639
     95  C         19.8060   47.9510   47.0940 C.2   215  PHE215      0.2290
     96  O         19.5660   46.8400   46.6300 O.2   215  PHE215     -0.2864
     97  CB        18.7350   47.9700   49.3550 C.3   215  PHE215      0.0560
     98  CG        17.9060   48.6210   50.4370 C.ar  215  PHE215     -0.0200
     99  CD1       17.7390   49.9770   50.4870 C.ar  215  PHE215     -0.0042
    100  CD2       17.3150   47.8370   51.4320 C.ar  215  PHE215     -0.0042
    101  CE1       16.9840   50.5920   51.4740 C.ar  215  PHE215     -0.0003
    102  CE2       16.5610   48.4440   52.4310 C.ar  215  PHE215     -0.0003
    103  CZ        16.3970   49.8050   52.4550 C.ar  215  PHE215     -0.0000
    104  N         12.1720   55.6000   60.1960 N.3   254  ILE254     -0.1245
    105  CA        13.0000   54.5320   59.6320 C.3   254  ILE254      0.1561
    106  C         13.6570   53.7640   60.7800 C.2   254  ILE254      0.2260
    107  O         14.5850   54.3080   61.3790 O.2   254  ILE254     -0.2867
    108  CB        14.0910   55.0690   58.6890 C.3   254  ILE254      0.0252
    109  CG1       13.6220   55.9590   57.5460 C.3   254  ILE254      0.0019
    110  CG2       14.8770   53.8660   58.1230 C.3   254  ILE254      0.0019
    111  CD1       14.7030   56.7740   56.8640 C.3   254  ILE254      0.0001
    112  N         14.0190   46.3540   58.1080 N.3   265  PHE265     -0.1241
    113  CA        13.6050   47.7420   58.2270 C.3   265  PHE265      0.1605
    114  C         12.0990   47.8360   58.4560 C.2   265  PHE265      0.2264
    115  O         11.2680   47.0000   58.1250 O.2   265  PHE265     -0.2867
    116  CB        13.9640   48.5740   56.9830 C.3   265  PHE265      0.0534
    117  CG        15.4310   48.9070   56.9360 C.ar  265  PHE265     -0.0203
    118  CD1       15.9300   49.9200   57.7320 C.ar  265  PHE265     -0.0042
    119  CD2       16.3000   48.1890   56.1220 C.ar  265  PHE265     -0.0042
    120  CE1       17.2750   50.2340   57.7030 C.ar  265  PHE265     -0.0003
    121  CE2       17.6470   48.5050   56.0870 C.ar  265  PHE265     -0.0003
    122  CZ        18.1280   49.5200   56.8810 C.ar  265  PHE265     -0.0000
    123  N          9.0910   51.0990   58.3200 N.3   267  LEU267     -0.1245
    124  CA         8.8310   52.4770   57.9660 C.3   267  LEU267      0.1561
    125  C          7.5030   52.8820   58.5920 C.2   267  LEU267      0.2260
    126  O          6.5020   52.1750   58.4070 O.2   267  LEU267     -0.2867
    127  CB         8.7630   52.7000   56.4510 C.3   267  LEU267      0.0270
    128  CG         9.9580   52.2670   55.5930 C.3   267  LEU267      0.0019
    129  CD1        9.6230   52.4550   54.1180 C.3   267  LEU267      0.0001
    130  CD2       11.2090   53.0400   55.9730 C.3   267  LEU267      0.0001
    131  N          8.5890   59.4560   54.8260 N.3   271  VAL271     -0.1231
    132  CA         9.9680   59.9540   54.7410 C.3   271  VAL271      0.1678
    133  C         10.1600   61.0900   53.7640 C.2   271  VAL271      0.2434
    134  O         10.7320   62.1290   54.1040 O.2   271  VAL271     -0.2733
    135  CB        10.9400   58.7840   54.5040 C.3   271  VAL271      0.0265
    136  CG1       12.3280   59.2550   54.1240 C.3   271  VAL271      0.0020
    137  CG2       10.9860   57.8950   55.7680 C.3   271  VAL271      0.0020
    138  N          9.7100   60.9960   52.5080 N.am  272  PRO272     -0.2729
    139  CA         9.7850   62.1090   51.5740 C.3   272  PRO272      0.1401
    140  C          9.1550   63.3710   52.1330 C.2   272  PRO272      0.2269
    141  O          9.6940   64.4590   52.0100 O.2   272  PRO272     -0.2865
    142  CB         9.0650   61.5950   50.3250 C.3   272  PRO272      0.0296
    143  CG         9.2170   60.1080   50.3940 C.3   272  PRO272      0.0237
    144  CD         9.1520   59.7780   51.8870 C.3   272  PRO272      0.0939
    145  N         21.2740   62.2400   49.5090 N.3   303  HIS303     -0.1241
    146  CA        21.1500   60.7840   49.5530 C.3   303  HIS303      0.1621
    147  C         19.8580   60.3750   48.8630 C.2   303  HIS303      0.2264
    148  O         18.7900   60.7800   49.3180 O.2   303  HIS303     -0.2867
    149  CB        21.1420   60.3650   51.0520 C.3   303  HIS303      0.0745
    150  CG        20.8630   58.9000   51.1380 C.ar  303  HIS303      0.0817
    151  ND1       21.7110   57.9740   50.6000 N.ar  303  HIS303     -0.2268
    152  CD2       19.7970   58.2260   51.6430 C.ar  303  HIS303      0.1154
    153  CE1       21.1760   56.7660   50.7610 C.ar  303  HIS303      0.1986
    154  NE2       20.0340   56.8980   51.4140 N.ar  303  HIS303     -0.2212
    155  N         17.4970   58.1990   48.9240 N.3   305  GLY305     -0.1210
    156  CA        16.8450   57.0990   49.6480 C.3   305  GLY305      0.1956
    157  C         15.7820   56.4020   48.7960 C.2   305  GLY305      0.2612
    158  O         15.6430   55.1870   48.7730 O.2   305  GLY305     -0.2717
    159  N         15.0310   57.2290   48.0780 N.am  306  GLY306     -0.1942
    160  CA        14.1530   56.7940   46.9860 C.3   306  GLY306      0.1998
    161  C         13.9600   58.0240   46.1100 C.2   306  GLY306      0.2481
    162  O         14.2150   59.1580   46.5080 O.2   306  GLY306     -0.2729
    163  N         13.4120   57.8470   44.8960 N.am  307  PRO307     -0.2715
    164  CA        13.1480   58.9800   44.0170 C.3   307  PRO307      0.1536
    165  C         12.1530   59.9750   44.5680 C.2   307  PRO307      0.2598
    166  O         12.2340   61.1730   44.2620 O.2   307  PRO307     -0.2715
    167  CB        12.6130   58.2810   42.7560 C.3   307  PRO307      0.0310
    168  CG        12.0340   57.0110   43.2540 C.3   307  PRO307      0.0237
    169  CD        12.9800   56.5380   44.3500 C.3   307  PRO307      0.0939
    170  N         11.1890   59.5310   45.3850 N.am  308  ALA308     -0.1964
    171  CA        10.2020   60.4880   45.9220 C.3   308  ALA308      0.1728
    172  C         10.8470   61.5150   46.8490 C.2   308  ALA308      0.2616
    173  O         10.3590   62.6430   46.9330 O.2   308  ALA308     -0.2715
    174  CB         9.1370   59.7250   46.7000 C.3   308  ALA308      0.0334
    175  N         11.8900   61.1500   47.6040 N.am  309  ILE309     -0.1977
    176  CA        12.5970   62.1170   48.4280 C.3   309  ILE309      0.1596
    177  C         13.1040   63.2530   47.5300 C.2   309  ILE309      0.2287
    178  O         12.9290   64.4310   47.7810 O.2   309  ILE309     -0.2864
    179  CB        13.8000   61.5220   49.1830 C.3   309  ILE309      0.0276
    180  CG1       13.2690   60.5010   50.2100 C.3   309  ILE309      0.0022
    181  CG2       14.5680   62.6350   49.8810 C.3   309  ILE309      0.0022
    182  CD1       14.3650   59.6940   50.9020 C.3   309  ILE309      0.0001
    183  N         20.1450   52.5170   45.7220 N.3   336  ASN336     -0.1240
    184  CA        20.4040   53.0990   47.0510 C.3   336  ASN336      0.1653
    185  C         21.4170   52.1880   47.7590 C.2   336  ASN336      0.2266
    186  O         21.0920   51.1190   48.2870 O.2   336  ASN336     -0.2867
    187  CB        19.0640   53.1690   47.7980 C.3   336  ASN336      0.1155
    188  CG        19.1590   53.6020   49.2480 C.2   336  ASN336      0.2627
    189  OD1       20.2530   53.7100   49.8000 O.2   336  ASN336     -0.2716
    190  ND2       18.0090   53.8440   49.8730 N.am  336  ASN336     -0.0877
    191  N         17.7790   56.7280   59.5530 N.3   375  PRO375     -0.2116
    192  CA        17.0860   56.5130   60.8180 C.3   375  PRO375      0.1372
    193  C         17.2190   57.6570   61.8090 C.2   375  PRO375      0.2244
    194  O         18.2930   58.1790   62.0800 O.2   375  PRO375     -0.2868
    195  CB        17.7870   55.2720   61.4160 C.3   375  PRO375      0.0268
    196  CG        18.1650   54.4960   60.1790 C.3   375  PRO375      0.0207
    197  CD        18.5970   55.5520   59.1580 C.3   375  PRO375      0.0892
@<TRIPOS>BOND
     1    37    36    1
     2    50    51    1
     3    50    49    1
     4    36    35    1
     5    47    46    2
     6    35    34    1
     7    45    46    1
     8    45    48    1
     9    45    44    1
    10    49    48    1
    11    29    30    1
    12    44    40   am
    13    30    31    1
    14    30    33    1
    15    15    16    1
    16    15    14    1
    17    34    33    1
    18    17    16    1
    19    17    18    2
    20    10    11    1
    21    43    42    1
    22    11    14    1
    23    11    12    1
    24    31    38   am
    25    31    32    2
    26    20    18    1
    27    13    12    2
    28    38    39    1
    29    40    39    1
    30    40    41    2
    31    18    19    1
    32    12    21   am
    33    39    42    1
    34    24    23    2
    35    23    22    1
    36    21    22    1
    37   167   168    1
    38   167   164    1
    39     1     2    1
    40    22    25    1
    41   168   169    1
    42     4     3    2
    43     3     2    1
    44     2     5    1
    45   164   165    1
    46   164   163    1
    47   166   165    2
    48    25    26    1
    49   169   163    1
    50   165   170   am
    51   163   161   am
    52     5     6    1
    53    26    27    1
    54   170   171    1
    55    92    90    1
    56     6     7    1
    57   183   184    1
    58   171   174    1
    59   171   172    1
    60    88    87    2
    61    86    85    1
    62    86    87    1
    63    86    89    1
    64   161   162    2
    65   161   160    1
    66    87    93   am
    67    96    95    2
    68    27    28    1
    69    90    89    1
    70    90    91    1
    71     9     8    1
    72   172   173    2
    73   172   175   am
    74   160   159    1
    75     7     8    1
    76   184   185    1
    77   184   187    1
    78    95    94    1
    79    93    94    1
    80   177   178    2
    81   177   176    1
    82   175   176    1
    83   185   186    2
    84   187   188    1
    85    94    97    1
    86   159   157   am
    87    77    76    2
    88    80    78    1
    89   176   179    1
    90   158   157    2
    91   157   156    1
    92    84    83    2
    93   147   148    2
    94   147   146    1
    95   155   156    1
    96    75    76    1
    97    75    78    1
    98    75    74    1
    99    76    81   am
   100   179   181    1
   101   179   180    1
   102   188   189    2
   103   188   190   am
   104    78    79    1
   105    97    98    1
   106    83    82    1
   107   145   146    1
   108   146   149    1
   109   180   182    1
   110    81    82    1
   111   142   143    1
   112   142   139    1
   113   143   144    1
   114    98    99   ar
   115    98   100   ar
   116    99   101   ar
   117    59    57    1
   118   151   153   ar
   119   151   150   ar
   120   153   154   ar
   121   149   150    1
   122    58    57    1
   123   150   152   ar
   124   154   152   ar
   125   100   102   ar
   126   101   103   ar
   127    55    54    2
   128    57    56    1
   129   139   140    1
   130   139   138    1
   131    56    53    1
   132   144   138    1
   133    71    70    2
   134   141   140    2
   135    53    54    1
   136    53    52    1
   137   102   103   ar
   138    70    69    1
   139   138   133   am
   140    54    60   am
   141    63    62    2
   142   133   134    2
   143   133   132    1
   144    60    61    1
   145    62    61    1
   146    62    68   am
   147    69    68    1
   148    69    72    1
   149    61    64    1
   150   129   128    1
   151   136   135    1
   152    73    72    1
   153   135   132    1
   154   135   137    1
   155   132   131    1
   156    64    65    1
   157   128   130    1
   158   128   127    1
   159   121   119   ar
   160   121   122   ar
   161   119   117   ar
   162   127   124    1
   163    66    65   ar
   164    65    67   ar
   165   111   109    1
   166   122   120   ar
   167   117   116    1
   168   117   118   ar
   169   116   113    1
   170   109   108    1
   171   120   118   ar
   172   124   123    1
   173   124   125    1
   174   112   113    1
   175   110   108    1
   176   115   114    2
   177   113   114    1
   178   126   125    2
   179   108   105    1
   180   197   191    1
   181   197   196    1
   182   191   192    1
   183   105   104    1
   184   105   106    1
   185   196   195    1
   186   106   107    2
   187   192   195    1
   188   192   193    1
   189   193   194    2
