@<TRIPOS>MOLECULE
tmp/1cnfA00.pdb
 210 206 0 0 0
SMALL
GASTEIGER

@<TRIPOS>ATOM
      1  N         14.1860   31.3700   -1.3480 N.3    38  HIS38      -0.1241
      2  CA        14.8260   30.8520   -0.1410 C.3    38  HIS38       0.1621
      3  C         16.2090   31.4220    0.1970 C.2    38  HIS38       0.2264
      4  O         16.7120   32.2790   -0.5160 O.2    38  HIS38      -0.2867
      5  CB        14.8490   29.3160   -0.1830 C.3    38  HIS38       0.0745
      6  CG        15.6550   28.7350   -1.3060 C.ar   38  HIS38       0.0817
      7  ND1       15.0710   28.1560   -2.4140 N.ar   38  HIS38      -0.2268
      8  CD2       16.9890   28.5190   -1.4310 C.ar   38  HIS38       0.1154
      9  CE1       16.0070   27.5980   -3.1650 C.ar   38  HIS38       0.1986
     10  NE2       17.1800   27.8020   -2.5910 N.ar   38  HIS38      -0.2212
     11  N         23.2240   24.8220    1.8220 N.3    52  ARG52      -0.1231
     12  CA        21.9800   24.1340    2.1210 C.3    52  ARG52       0.1694
     13  C         20.8360   25.1340    2.1660 C.2    52  ARG52       0.2592
     14  O         20.8720   26.0850    2.9530 O.2    52  ARG52      -0.2718
     15  CB        22.0690   23.4270    3.4770 C.3    52  ARG52       0.0321
     16  CG        22.9300   22.1750    3.4630 C.3    52  ARG52       0.0489
     17  CD        22.5160   21.2590    2.3230 C.3    52  ARG52       0.2205
     18  NE        23.6760   20.6650    1.6780 N.pl3  52  ARG52      -0.0865
     19  CZ        24.3990   19.6870    2.2040 C.cat  52  ARG52       0.5346
     20  NH1       24.0920   19.1810    3.3870 N.pl3  52  ARG52       0.1354
     21  NH2       25.4120   19.1850    1.5290 N.pl3  52  ARG52       0.1354
     22  N         19.7940   24.9000    1.3690 N.am   53  ALA53      -0.1966
     23  CA        18.6300   25.7960    1.3330 C.3    53  ALA53       0.1728
     24  C         17.7040   25.5440    2.5200 C.2    53  ALA53       0.2616
     25  O         17.4930   24.4060    2.9060 O.2    53  ALA53      -0.2715
     26  CB        17.8720   25.6490    0.0330 C.3    53  ALA53       0.0334
     27  N         17.1630   26.6190    3.0900 N.am   54  TYR54      -0.1960
     28  CA        16.2520   26.5400    4.2350 C.3    54  TYR54       0.1771
     29  C         15.3250   27.7300    4.0410 C.2    54  TYR54       0.2620
     30  O         15.7690   28.8120    3.6350 O.2    54  TYR54      -0.2715
     31  CB        16.9760   26.6990    5.5900 C.3    54  TYR54       0.0574
     32  CG        17.8530   25.5600    6.0150 C.ar   54  TYR54      -0.0198
     33  CD1       19.1330   25.3990    5.4750 C.ar   54  TYR54      -0.0009
     34  CD2       17.4020   24.6270    6.9350 C.ar   54  TYR54      -0.0009
     35  CE1       19.9380   24.3280    5.8400 C.ar   54  TYR54       0.0417
     36  CE2       18.1900   23.5560    7.2990 C.ar   54  TYR54       0.0417
     37  CZ        19.4520   23.4160    6.7440 C.ar   54  TYR54       0.1957
     38  OH        20.2340   22.3480    7.0520 O.3    54  TYR54      -0.2866
     39  N         14.0400   27.5180    4.3300 N.am   55  THR55      -0.1951
     40  CA        13.0160   28.5560    4.2070 C.3    55  THR55       0.1897
     41  C         12.5410   28.9050    5.6220 C.2    55  THR55       0.2313
     42  O         11.9420   28.0670    6.3100 O.2    55  THR55      -0.2863
     43  CB        11.8490   28.0490    3.3620 C.3    55  THR55       0.1794
     44  OG1       12.3660   27.4750    2.1620 O.3    55  THR55      -0.2208
     45  CG2       10.9510   29.1770    2.9640 C.3    55  THR55       0.0378
     46  N         14.3010   29.2890   12.1790 N.3    68  LEU68      -0.1231
     47  CA        14.5740   28.1750   11.2710 C.3    68  LEU68       0.1693
     48  C         14.0560   26.9270   11.9570 C.2    68  LEU68       0.2592
     49  O         14.4660   26.6220   13.0780 O.2    68  LEU68      -0.2718
     50  CB        16.0880   28.0180   11.0330 C.3    68  LEU68       0.0284
     51  CG        16.7890   28.7800    9.9070 C.3    68  LEU68       0.0019
     52  CD1       18.1610   28.2010    9.6560 C.3    68  LEU68       0.0001
     53  CD2       15.9860   28.6650    8.6470 C.3    68  LEU68       0.0001
     54  N         13.1230   26.2300   11.3240 N.am   69  LEU69      -0.1966
     55  CA        12.5900   25.0050   11.9110 C.3    69  LEU69       0.1728
     56  C         13.4130   23.9270   11.2680 C.2    69  LEU69       0.2616
     57  O         13.2560   23.7050   10.0580 O.2    69  LEU69      -0.2715
     58  CB        11.1450   24.8270   11.4910 C.3    69  LEU69       0.0311
     59  CG        10.4040   23.6260   12.0690 C.3    69  LEU69       0.0022
     60  CD1       10.0800   23.7520   13.5850 C.3    69  LEU69       0.0001
     61  CD2        9.1570   23.4950   11.2170 C.3    69  LEU69       0.0001
     62  N         14.2570   23.2530   12.0550 N.am   70  VAL70      -0.1963
     63  CA        15.1640   22.2240   11.5310 C.3    70  VAL70       0.1727
     64  C         14.9440   20.8430   12.1630 C.2    70  VAL70       0.2616
     65  O         14.7250   20.7560   13.3780 O.2    70  VAL70      -0.2715
     66  CB        16.6580   22.6380   11.7750 C.3    70  VAL70       0.0290
     67  CG1       17.5980   21.6020   11.2530 C.3    70  VAL70       0.0023
     68  CG2       16.9800   23.9550   11.1170 C.3    70  VAL70       0.0023
     69  N         14.9240   19.7940   11.3230 N.am   71  LYS71      -0.1977
     70  CA        14.7810   18.3930   11.7680 C.3    71  LYS71       0.1596
     71  C         16.1680   17.7710   11.6500 C.2    71  LYS71       0.2287
     72  O         16.6720   17.5470   10.5430 O.2    71  LYS71      -0.2864
     73  CB        13.7940   17.6030   10.9110 C.3    71  LYS71       0.0298
     74  CG        13.6540   16.1560   11.3830 C.3    71  LYS71       0.0038
     75  CD        12.6840   15.3620   10.5410 C.3    71  LYS71       0.0206
     76  CE        13.0810   15.3730    9.0390 C.3    71  LYS71       0.1093
     77  NZ        12.3240   14.3910    8.1530 N.3    71  LYS71      -0.1314
     78  N         19.2890   15.4550   11.3920 N.3    73  TYR73      -0.1227
     79  CA        19.6330   14.1440   10.8560 C.3    73  TYR73       0.1736
     80  C         20.8110   13.5680   11.6380 C.2    73  TYR73       0.2595
     81  O         21.9640   13.8190   11.2730 O.2    73  TYR73      -0.2718
     82  CB        20.0370   14.2400    9.3810 C.3    73  TYR73       0.0548
     83  CG        18.8990   14.3420    8.3760 C.ar   73  TYR73      -0.0200
     84  CD1       17.6220   13.8700    8.6560 C.ar   73  TYR73      -0.0009
     85  CD2       19.1140   14.9220    7.1340 C.ar   73  TYR73      -0.0009
     86  CE1       16.6020   13.9800    7.7160 C.ar   73  TYR73       0.0417
     87  CE2       18.1000   15.0390    6.1980 C.ar   73  TYR73       0.0417
     88  CZ        16.8560   14.5700    6.4870 C.ar   73  TYR73       0.1957
     89  OH        15.8860   14.7020    5.5210 O.3    73  TYR73      -0.2866
     90  N         20.5280   12.7710   12.6730 N.am   74  PHE74      -0.1976
     91  CA        21.5670   12.1500   13.5250 C.3    74  PHE74       0.1639
     92  C         22.2930   10.9010   12.9340 C.2    74  PHE74       0.2290
     93  O         21.7050   10.1220   12.1680 O.2    74  PHE74      -0.2864
     94  CB        20.9360   11.7490   14.8680 C.3    74  PHE74       0.0560
     95  CG        20.3680   12.9020   15.6670 C.ar   74  PHE74      -0.0200
     96  CD1       21.1800   13.9500   16.0920 C.ar   74  PHE74      -0.0042
     97  CD2       19.0410   12.8920   16.0800 C.ar   74  PHE74      -0.0042
     98  CE1       20.6730   14.9570   16.9270 C.ar   74  PHE74      -0.0003
     99  CE2       18.5330   13.8980   16.9120 C.ar   74  PHE74      -0.0003
    100  CZ        19.3460   14.9230   17.3360 C.ar   74  PHE74      -0.0000
    101  N         21.3850    6.4100   13.3680 N.3    77  GLU77      -0.1231
    102  CA        19.9210    6.4310   13.3610 C.3    77  GLU77       0.1699
    103  C         19.2870    5.7200   12.1740 C.2    77  GLU77       0.2592
    104  O         18.1600    5.2670   12.2560 O.2    77  GLU77      -0.2718
    105  CB        19.3980    7.8800   13.3840 C.3    77  GLU77       0.0402
    106  CG        19.2500    8.4980   14.7770 C.3    77  GLU77       0.1161
    107  CD        18.2000    7.8000   15.6490 C.2    77  GLU77       0.3649
    108  OE1       17.1490    7.3670   15.1010 O.co2  77  GLU77      -0.2457
    109  OE2       18.4280    7.6960   16.8840 O.co2  77  GLU77      -0.2457
    110  N         20.0050    5.5950   11.0700 N.am   78  HIS78      -0.1976
    111  CA        19.4230    4.9710    9.8930 C.3    78  HIS78       0.1656
    112  C         20.3920    4.0480    9.1020 C.2    78  HIS78       0.2291
    113  O         21.4690    4.4660    8.6620 O.2    78  HIS78      -0.2864
    114  CB        18.8650    6.1010    9.0240 C.3    78  HIS78       0.0771
    115  CG        18.2080    5.6510    7.7610 C.ar   78  HIS78       0.0820
    116  ND1       16.8390    5.6690    7.5890 N.ar   78  HIS78      -0.2267
    117  CD2       18.7310    5.2660    6.5730 C.ar   78  HIS78       0.1154
    118  CE1       16.5500    5.3260    6.3440 C.ar   78  HIS78       0.1986
    119  NE2       17.6800    5.0740    5.7060 N.ar   78  HIS78      -0.2212
    120  N         21.7530    5.4840    5.8500 N.3    81  PHE81      -0.1241
    121  CA        22.5060    6.7180    6.0600 C.3    81  PHE81       0.1605
    122  C         23.0240    6.6690    7.4930 C.2    81  PHE81       0.2264
    123  O         22.5680    7.4070    8.3670 O.2    81  PHE81      -0.2867
    124  CB        21.5730    7.9130    5.8850 C.3    81  PHE81       0.0534
    125  CG        20.7540    7.8710    4.6310 C.ar   81  PHE81      -0.0203
    126  CD1       21.3470    8.0580    3.3840 C.ar   81  PHE81      -0.0042
    127  CD2       19.3890    7.6800    4.7010 C.ar   81  PHE81      -0.0042
    128  CE1       20.5840    8.0570    2.2240 C.ar   81  PHE81      -0.0003
    129  CE2       18.6230    7.6750    3.5580 C.ar   81  PHE81      -0.0003
    130  CZ        19.2210    7.8670    2.3110 C.ar   81  PHE81      -0.0000
    131  N         24.3150   10.3330    9.6170 N.3    84  GLY84      -0.1210
    132  CA        23.5060   11.5370    9.7310 C.3    84  GLY84       0.1956
    133  C         23.6060   12.5370    8.5820 C.2    84  GLY84       0.2612
    134  O         24.1800   12.2500    7.5260 O.2    84  GLY84      -0.2717
    135  N         23.0090   13.7120    8.7690 N.am   85  GLY85      -0.1942
    136  CA        23.0470   14.7470    7.7490 C.3    85  GLY85       0.2014
    137  C         24.2790   15.5870    7.9860 C.2    85  GLY85       0.2639
    138  O         24.7390   15.6930    9.1370 O.2    85  GLY85      -0.2714
    139  N         24.7820   16.2290    6.9340 N.am   86  LEU86      -0.1963
    140  CA        25.9990   17.0520    7.0270 C.3    86  LEU86       0.1728
    141  C         25.9080   18.4260    7.7030 C.2    86  LEU86       0.2616
    142  O         26.8080   18.8180    8.4370 O.2    86  LEU86      -0.2715
    143  CB        26.6170   17.2200    5.6370 C.3    86  LEU86       0.0311
    144  CG        27.8830   18.0630    5.5170 C.3    86  LEU86       0.0022
    145  CD1       29.0530   17.2800    6.0610 C.3    86  LEU86       0.0001
    146  CD2       28.1260   18.4390    4.0810 C.3    86  LEU86       0.0001
    147  N         24.8450   19.1660    7.4220 N.am   87  MET87      -0.1963
    148  CA        24.6590   20.4980    7.9740 C.3    87  MET87       0.1736
    149  C         23.7020   20.5370    9.1550 C.2    87  MET87       0.2617
    150  O         23.5110   21.5910    9.7580 O.2    87  MET87      -0.2715
    151  CB        24.1740   21.4410    6.8700 C.3    87  MET87       0.0427
    152  CG        23.8120   22.8490    7.2860 C.3    87  MET87       0.0599
    153  SD        25.1740   23.9610    7.6340 S.3    87  MET87      -0.1393
    154  CE        25.5990   24.4120    5.9990 C.3    87  MET87       0.0692
    155  N         23.0860   19.4150    9.5140 N.am   88  THR88      -0.1951
    156  CA        22.1750   19.4780   10.6440 C.3    88  THR88       0.1897
    157  C         22.7890   19.2240   12.0270 C.2    88  THR88       0.2313
    158  O         22.4750   19.9110   13.0150 O.2    88  THR88      -0.2863
    159  CB        20.9480   18.6270   10.3890 C.3    88  THR88       0.1794
    160  OG1       21.3160   17.4190    9.7190 O.3    88  THR88      -0.2208
    161  CG2       20.0030   19.3840    9.4880 C.3    88  THR88       0.0378
    162  N         10.1730   17.8120    5.6740 N.3   136  SER136     -0.1202
    163  CA        10.6300   19.2180    5.7600 C.3   136  SER136      0.2020
    164  C         10.2820   20.0920    4.5780 C.2   136  SER136      0.2619
    165  O         10.3500   21.2980    4.6560 O.2   136  SER136     -0.2717
    166  CB        12.1490   19.2630    5.9540 C.3   136  SER136      0.2103
    167  OG        12.8110   18.5370    4.9180 O.3   136  SER136     -0.2182
    168  N          9.8470   19.4730    3.5040 N.am  137  GLY137     -0.1956
    169  CA         9.4870   20.2390    2.3320 C.3   137  GLY137      0.1869
    170  C          8.1950   20.9830    2.5050 C.2   137  GLY137      0.2309
    171  O          7.5800   21.3550    1.5140 O.2   137  GLY137     -0.2863
    172  N          7.9960   23.7180    4.7260 N.3   139  THR139     -0.1204
    173  CA         8.2940   25.1250    4.9440 C.3   139  THR139      0.1979
    174  C          8.1340   25.9050    3.6490 C.2   139  THR139      0.2459
    175  O          7.5490   26.9650    3.6650 O.2   139  THR139     -0.2732
    176  CB         9.6260   25.3500    5.6950 C.3   139  THR139      0.1783
    177  OG1       10.7240   24.8350    4.9430 O.3   139  THR139     -0.2211
    178  CG2        9.5900   24.6670    7.0430 C.3   139  THR139      0.0376
    179  N          8.6070   25.3690    2.5070 N.am  140  PRO140     -0.2728
    180  CA         8.4320   26.1000    1.2390 C.3   140  PRO140      0.1401
    181  C          6.9570   26.4020    0.9870 C.2   140  PRO140      0.2269
    182  O          6.6330   27.3990    0.3490 O.2   140  PRO140     -0.2865
    183  CB         8.9530   25.1120    0.2010 C.3   140  PRO140      0.0296
    184  CG        10.0880   24.4860    0.8910 C.3   140  PRO140      0.0237
    185  CD         9.5670   24.2640    2.3230 C.3   140  PRO140      0.0939
    186  N          5.1930   18.0390   11.2040 N.3   172  LEU172     -0.1245
    187  CA         5.8200   19.3030   11.5780 C.3   172  LEU172      0.1561
    188  C          4.8770   20.4290   11.9710 C.2   172  LEU172      0.2260
    189  O          4.2890   20.3930   13.0530 O.2   172  LEU172     -0.2867
    190  CB         6.8660   19.7590   10.5310 C.3   172  LEU172      0.0270
    191  CG         8.3670   19.5810   10.8540 C.3   172  LEU172      0.0019
    192  CD1        8.6900   18.1470   11.1220 C.3   172  LEU172      0.0001
    193  CD2        9.2300   20.0540    9.7230 C.3   172  LEU172      0.0001
    194  N          7.2030   19.6220   -2.8850 N.3   232  CYS232     -0.1235
    195  CA         8.5200   19.6440   -2.2760 C.3   232  CYS232      0.1677
    196  C          8.6630   18.4690   -1.3080 C.2   232  CYS232      0.2270
    197  O          8.2370   18.5500   -0.1730 O.2   232  CYS232     -0.2867
    198  CB         8.7550   20.9620   -1.5520 C.3   232  CYS232      0.0956
    199  SG        10.4280   21.1200   -0.9380 S.3   232  CYS232     -0.0801
    200  N         10.1900   22.9590   -5.8030 N.3   260  PHE260     -0.1241
    201  CA        11.2280   23.7140   -5.0830 C.3   260  PHE260      0.1605
    202  C         12.3700   22.7680   -4.7260 C.2   260  PHE260      0.2264
    203  O         12.0460   21.5890   -4.3780 O.2   260  PHE260     -0.2867
    204  CB        10.6850   24.3350   -3.7780 C.3   260  PHE260      0.0534
    205  CG         9.4810   25.1910   -3.9720 C.ar  260  PHE260     -0.0203
    206  CD1        9.4690   26.1800   -4.9450 C.ar  260  PHE260     -0.0042
    207  CD2        8.3400   24.9710   -3.2330 C.ar  260  PHE260     -0.0042
    208  CE1        8.3460   26.9330   -5.1830 C.ar  260  PHE260     -0.0003
    209  CE2        7.1910   25.7250   -3.4600 C.ar  260  PHE260     -0.0003
    210  CZ         7.1980   26.7150   -4.4480 C.ar  260  PHE260     -0.0000
@<TRIPOS>BOND
     1   200   201    1
     2   208   206   ar
     3   208   210   ar
     4   201   202    1
     5   201   204    1
     6   206   205   ar
     7   202   203    2
     8   210   209   ar
     9   205   204    1
    10   205   207   ar
    11   209   207   ar
    12     9    10   ar
    13     9     7   ar
    14   194   195    1
    15    10     8   ar
    16     7     6   ar
    17   195   198    1
    18   195   196    1
    19   198   199    1
    20     8     6   ar
    21     1     2    1
    22   196   197    2
    23     6     5    1
    24     4     3    2
    25     5     2    1
    26     2     3    1
    27    26    23    1
    28   183   184    1
    29   183   180    1
    30   182   181    2
    31   184   185    1
    32   181   180    1
    33   180   179    1
    34    23    22    1
    35    23    24    1
    36    22    13   am
    37   171   170    2
    38    21    19    1
    39    18    19    2
    40    18    17    1
    41    11    12    1
    42    12    13    1
    43    12    15    1
    44    44    43    1
    45    13    14    2
    46    19    20    1
    47   128   130   ar
    48   128   126   ar
    49   130   129   ar
    50    17    16    1
    51   185   179    1
    52   169   170    1
    53   169   168    1
    54   179   174   am
    55    24    25    2
    56    24    27   am
    57    45    43    1
    58    27    28    1
    59    43    40    1
    60   126   125   ar
    61    16    15    1
    62   168   164   am
    63   129   127   ar
    64    30    29    2
    65   174   175    2
    66   174   173    1
    67    29    28    1
    68    29    39   am
    69   146   144    1
    70    40    39    1
    71    40    41    1
    72    28    31    1
    73   164   165    2
    74   164   163    1
    75   125   127   ar
    76   125   124    1
    77   172   173    1
    78   167   166    1
    79   177   176    1
    80   173   176    1
    81    33    35   ar
    82    33    32   ar
    83   144   143    1
    84   144   145    1
    85    89    88    1
    86    31    32    1
    87    41    42    2
    88   143   140    1
    89   162   163    1
    90   176   178    1
    91   119   118   ar
    92   119   117   ar
    93   163   166    1
    94    35    37   ar
    95   120   121    1
    96   124   121    1
    97   154   153    1
    98    32    34   ar
    99   121   122    1
   100    87    88   ar
   101    87    85   ar
   102   118   116   ar
   103    88    86   ar
   104   117   115   ar
   105    37    38    1
   106    37    36   ar
   107   151   152    1
   108   151   148    1
   109   139   140    1
   110   139   137   am
   111    34    36   ar
   112   140   141    1
   113    85    83   ar
   114   152   153    1
   115   147   141   am
   116   147   148    1
   117   122   123    2
   118   134   133    2
   119   116   115   ar
   120   141   142    2
   121    86    84   ar
   122   136   137    1
   123   136   135    1
   124   115   114    1
   125   148   149    1
   126   137   138    2
   127    77    76    1
   128    83    84   ar
   129    83    82    1
   130   133   135   am
   131   133   132    1
   132    53    51    1
   133   113   112    2
   134   114   111    1
   135    76    75    1
   136   112   111    1
   137   149   155   am
   138   149   150    2
   139    82    79    1
   140   161   159    1
   141   155   156    1
   142   131   132    1
   143    52    51    1
   144   160   159    1
   145   193   191    1
   146   111   110    1
   147    51    50    1
   148    57    56    2
   149   159   156    1
   150   190   191    1
   151   190   187    1
   152    75    74    1
   153    72    71    2
   154   156   157    1
   155   191   192    1
   156    79    78    1
   157    79    80    1
   158    73    74    1
   159    73    70    1
   160    50    47    1
   161   110   103   am
   162    68    66    1
   163   186   187    1
   164    61    59    1
   165    67    66    1
   166    56    55    1
   167    56    62   am
   168    47    48    1
   169    47    46    1
   170    81    80    2
   171    69    70    1
   172    69    64   am
   173    54    55    1
   174    54    48   am
   175    58    55    1
   176    58    59    1
   177    63    66    1
   178    63    62    1
   179    63    64    1
   180   187   188    1
   181    80    90   am
   182    71    70    1
   183    48    49    2
   184   188   189    2
   185   157   158    2
   186    59    60    1
   187    64    65    2
   188    93    92    2
   189   103   104    2
   190   103   102    1
   191    90    91    1
   192    92    91    1
   193   102   101    1
   194   102   105    1
   195   105   106    1
   196    91    94    1
   197   106   107    1
   198    94    95    1
   199   108   107   ar
   200   107   109   ar
   201    95    97   ar
   202    95    96   ar
   203    97    99   ar
   204    96    98   ar
   205    99   100   ar
   206    98   100   ar
