@<TRIPOS>MOLECULE
tmp/1cnfA01.pdb
 131 126 0 0 0
SMALL
GASTEIGER

@<TRIPOS>ATOM
      1  N         14.9240   19.7940   11.3230 N.3    71  LYS71      -0.1245
      2  CA        14.7810   18.3930   11.7680 C.3    71  LYS71       0.1561
      3  C         16.1680   17.7710   11.6500 C.2    71  LYS71       0.2260
      4  O         16.6720   17.5470   10.5430 O.2    71  LYS71      -0.2867
      5  CB        13.7940   17.6030   10.9110 C.3    71  LYS71       0.0271
      6  CG        13.6540   16.1560   11.3830 C.3    71  LYS71       0.0035
      7  CD        12.6840   15.3620   10.5410 C.3    71  LYS71       0.0206
      8  CE        13.0810   15.3730    9.0390 C.3    71  LYS71       0.1093
      9  NZ        12.3240   14.3910    8.1530 N.3    71  LYS71      -0.1314
     10  N         19.2890   15.4550   11.3920 N.3    73  TYR73      -0.1241
     11  CA        19.6330   14.1440   10.8560 C.3    73  TYR73       0.1605
     12  C         20.8110   13.5680   11.6380 C.2    73  TYR73       0.2264
     13  O         21.9640   13.8190   11.2730 O.2    73  TYR73      -0.2867
     14  CB        20.0370   14.2400    9.3810 C.3    73  TYR73       0.0534
     15  CG        18.8990   14.3420    8.3760 C.ar   73  TYR73      -0.0201
     16  CD1       17.6220   13.8700    8.6560 C.ar   73  TYR73      -0.0009
     17  CD2       19.1140   14.9220    7.1340 C.ar   73  TYR73      -0.0009
     18  CE1       16.6020   13.9800    7.7160 C.ar   73  TYR73       0.0417
     19  CE2       18.1000   15.0390    6.1980 C.ar   73  TYR73       0.0417
     20  CZ        16.8560   14.5700    6.4870 C.ar   73  TYR73       0.1957
     21  OH        15.8860   14.7020    5.5210 O.3    73  TYR73      -0.2866
     22  N          6.5160   16.3210    1.9890 N.3   134  GLY134     -0.1210
     23  CA         6.6760   15.3320    3.0260 C.3   134  GLY134      0.1956
     24  C          7.7730   15.8090    3.9330 C.2   134  GLY134      0.2612
     25  O          8.6330   16.5380    3.4850 O.2   134  GLY134     -0.2717
     26  N          7.7130   15.4670    5.2100 N.am  135  GLY135     -0.1942
     27  CA         8.7560   15.8780    6.1250 C.3   135  GLY135      0.2014
     28  C          9.0580   17.3690    6.2410 C.2   135  GLY135      0.2639
     29  O          8.2790   18.1170    6.8160 O.2   135  GLY135     -0.2714
     30  N         10.1730   17.8120    5.6740 N.am  136  SER136     -0.1949
     31  CA        10.6300   19.2180    5.7600 C.3   136  SER136      0.1924
     32  C         10.2820   20.0920    4.5780 C.2   136  SER136      0.2314
     33  O         10.3500   21.2980    4.6560 O.2   136  SER136     -0.2863
     34  CB        12.1490   19.2630    5.9540 C.3   136  SER136      0.2116
     35  OG        12.8110   18.5370    4.9180 O.3   136  SER136     -0.2180
     36  N          2.6120   14.4880    3.7370 N.3   164  ALA164     -0.1231
     37  CA         3.1070   13.1610    4.0660 C.3   164  ALA164      0.1694
     38  C          4.1590   13.1640    5.1980 C.2   164  ALA164      0.2592
     39  O          4.8740   14.1440    5.3940 O.2   164  ALA164     -0.2718
     40  CB         3.6560   12.5090    2.8040 C.3   164  ALA164      0.0304
     41  N          4.2720   12.0550    5.9230 N.am  165  ASN165     -0.1960
     42  CA         5.2340   11.9300    7.0200 C.3   165  ASN165      0.1819
     43  C          5.5320   10.4400    7.2960 C.2   165  ASN165      0.2621
     44  O          5.2690    9.5800    6.4470 O.2   165  ASN165     -0.2715
     45  CB         4.7430   12.6420    8.2900 C.3   165  ASN165      0.1195
     46  CG         5.0780   14.1360    8.3020 C.2   165  ASN165      0.2630
     47  OD1        6.2160   14.5280    8.0690 O.2   165  ASN165     -0.2716
     48  ND2        4.0880   14.9690    8.5840 N.am  165  ASN165     -0.0877
     49  N          6.1310   10.1280    8.4380 N.am  166  ARG166     -0.1977
     50  CA         6.4190    8.7310    8.7470 C.3   166  ARG166      0.1597
     51  C          5.6130    8.2960    9.9440 C.2   166  ARG166      0.2287
     52  O          5.2690    7.1370   10.1010 O.2   166  ARG166     -0.2864
     53  CB         7.9070    8.5300    9.0360 C.3   166  ARG166      0.0334
     54  CG         8.7620    8.1300    7.8030 C.3   166  ARG166      0.0492
     55  CD         8.8990    6.5840    7.5830 C.3   166  ARG166      0.2205
     56  NE         9.5310    5.9150    8.7150 N.pl3 166  ARG166     -0.0865
     57  CZ         8.9250    5.0160    9.4810 C.cat 166  ARG166      0.5346
     58  NH1        7.6680    4.6430    9.2420 N.pl3 166  ARG166      0.1354
     59  NH2        9.5420    4.5790   10.5570 N.pl3 166  ARG166      0.1354
     60  N          5.5430   13.1250   13.8750 N.3   170  ASP170     -0.1239
     61  CA         6.5200   13.7180   12.9830 C.3   170  ASP170      0.1674
     62  C          5.8810   14.7230   12.0160 C.2   170  ASP170      0.2266
     63  O          6.4970   15.1610   11.0400 O.2   170  ASP170     -0.2867
     64  CB         7.3370   12.6190   12.2820 C.3   170  ASP170      0.1410
     65  CG         8.4860   12.0880   13.1620 C.2   170  ASP170      0.3668
     66  OD1        8.5030   12.4160   14.3700 O.co2 170  ASP170     -0.2456
     67  OD2        9.3880   11.3770   12.6580 O.co2 170  ASP170     -0.2456
     68  N          2.9360    7.1740    7.4300 N.3   195  ASP195     -0.1239
     69  CA         3.5130    5.8330    7.2470 C.3   195  ASP195      0.1674
     70  C          3.1320    4.8020    8.2820 C.2   195  ASP195      0.2266
     71  O          2.9790    3.6310    7.9560 O.2   195  ASP195     -0.2867
     72  CB         5.0380    5.9440    7.2060 C.3   195  ASP195      0.1410
     73  CG         5.6750    4.8730    6.3640 C.2   195  ASP195      0.3668
     74  OD1        5.8420    5.1140    5.1550 O.co2 195  ASP195     -0.2456
     75  OD2        6.0290    3.8020    6.8970 O.co2 195  ASP195     -0.2456
     76  N          1.4200    5.6520    1.9430 N.3   210  PHE210     -0.1227
     77  CA         2.1000    6.4830    0.9640 C.3   210  PHE210      0.1736
     78  C          1.0990    7.3790    0.2570 C.2   210  PHE210      0.2595
     79  O         -0.1140    7.2320    0.4130 O.2   210  PHE210     -0.2718
     80  CB         2.7920    5.6070   -0.0880 C.3   210  PHE210      0.0547
     81  CG         1.8810    4.5480   -0.7430 C.ar  210  PHE210     -0.0202
     82  CD1        0.5190    4.4430   -0.4310 C.ar  210  PHE210     -0.0042
     83  CD2        2.4160    3.6240   -1.6430 C.ar  210  PHE210     -0.0042
     84  CE1       -0.2780    3.4470   -0.9910 C.ar  210  PHE210     -0.0003
     85  CE2        1.6250    2.6240   -2.2050 C.ar  210  PHE210     -0.0003
     86  CZ         0.2760    2.5340   -1.8780 C.ar  210  PHE210     -0.0000
     87  N          1.6170    8.2770   -0.5650 N.am  211  VAL211     -0.1980
     88  CA         0.7890    9.1850   -1.3360 C.3   211  VAL211      0.1595
     89  C          0.5800    8.4290   -2.6210 C.2   211  VAL211      0.2287
     90  O          1.5410    7.8720   -3.1720 O.2   211  VAL211     -0.2864
     91  CB         1.5300   10.4870   -1.6140 C.3   211  VAL211      0.0276
     92  CG1        0.8050   11.2770   -2.6830 C.3   211  VAL211      0.0022
     93  CG2        1.6700   11.2910   -0.3040 C.3   211  VAL211      0.0022
     94  N         11.0880   14.4310   -0.7330 N.3   234  PRO234     -0.2116
     95  CA        12.2820   13.6800   -1.1370 C.3   234  PRO234      0.1372
     96  C         12.2110   13.4050   -2.6140 C.2   234  PRO234      0.2244
     97  O         11.1150   13.3230   -3.1500 O.2   234  PRO234     -0.2868
     98  CB        12.1740   12.4110   -0.2920 C.3   234  PRO234      0.0268
     99  CG        11.5270   12.9130    0.9650 C.3   234  PRO234      0.0207
    100  CD        10.4650   13.8260    0.4630 C.3   234  PRO234      0.0892
    101  N         12.5910   10.6150   -4.4110 N.3   236  PRO236     -0.2102
    102  CA        11.7200    9.4890   -4.7680 C.3   236  PRO236      0.1504
    103  C         10.2550    9.8800   -4.7620 C.2   236  PRO236      0.2575
    104  O          9.5670    9.6870   -5.7700 O.2   236  PRO236     -0.2718
    105  CB        12.0230    8.4470   -3.6840 C.3   236  PRO236      0.0282
    106  CG        12.6850    9.2300   -2.5570 C.3   236  PRO236      0.0208
    107  CD        13.4880   10.2410   -3.2990 C.3   236  PRO236      0.0893
    108  N          9.7950   10.4480   -3.6410 N.am  237  MET237     -0.1980
    109  CA         8.4050   10.8640   -3.5160 C.3   237  MET237      0.1605
    110  C          7.9630   11.5440   -4.7990 C.2   237  MET237      0.2287
    111  O          6.9980   11.1090   -5.4330 O.2   237  MET237     -0.2864
    112  CB         8.1780   11.7860   -2.3200 C.3   237  MET237      0.0413
    113  CG         6.6990   12.1560   -2.1380 C.3   237  MET237      0.0598
    114  SD         6.2500   13.2210   -0.7110 S.3   237  MET237     -0.1393
    115  CE         4.5480   13.0460   -0.6470 C.3   237  MET237      0.0692
    116  N          8.3520    9.0650   -8.6460 N.3   240  PHE240     -0.1227
    117  CA         7.3020    8.1090   -8.9720 C.3   240  PHE240      0.1736
    118  C          6.0660    8.1200   -8.0770 C.2   240  PHE240      0.2595
    119  O          5.1850    7.2760   -8.2430 O.2   240  PHE240     -0.2718
    120  CB         7.9030    6.7030   -8.9760 C.3   240  PHE240      0.0547
    121  CG         8.7730    6.4130   -7.7720 C.ar  240  PHE240     -0.0202
    122  CD1        8.4230    6.8810   -6.5000 C.ar  240  PHE240     -0.0042
    123  CD2        9.9570    5.6970   -7.9120 C.ar  240  PHE240     -0.0042
    124  CE1        9.2430    6.6420   -5.3880 C.ar  240  PHE240     -0.0003
    125  CE2       10.7850    5.4540   -6.8090 C.ar  240  PHE240     -0.0003
    126  CZ        10.4250    5.9280   -5.5400 C.ar  240  PHE240     -0.0000
    127  N          6.0080    9.0290   -7.1070 N.am  241  ALA241     -0.1980
    128  CA         4.8510    9.0790   -6.2190 C.3   241  ALA241      0.1597
    129  C          3.9680   10.2670   -6.4870 C.2   241  ALA241      0.2287
    130  O          2.7770   10.2490   -6.1650 O.2   241  ALA241     -0.2864
    131  CB         5.2840    9.0780   -4.7780 C.3   241  ALA241      0.0319
@<TRIPOS>BOND
     1   120   117    1
     2   120   121    1
     3   117   116    1
     4   117   118    1
     5   119   118    2
     6   118   127   am
     7   123   121   ar
     8   123   125   ar
     9   121   122   ar
    10   127   128    1
    11   125   126   ar
    12   122   124   ar
    13   129   128    1
    14   129   130    2
    15   128   131    1
    16   104   103    2
    17   126   124   ar
    18   111   110    2
    19   110   109    1
    20   102   103    1
    21   102   101    1
    22   102   105    1
    23   103   108   am
    24   101   107    1
    25   105   106    1
    26   108   109    1
    27   109   112    1
    28   107   106    1
    29    90    89    2
    30    97    96    2
    31    92    91    1
    32    89    88    1
    33    96    95    1
    34   112   113    1
    35    85    86   ar
    36    85    83   ar
    37   113   114    1
    38    86    84   ar
    39    83    81   ar
    40    91    88    1
    41    91    93    1
    42    88    87    1
    43    95    94    1
    44    95    98    1
    45    84    82   ar
    46    81    82   ar
    47    81    80    1
    48    94   100    1
    49   114   115    1
    50    87    78   am
    51    98    99    1
    52    80    77    1
    53    78    79    2
    54    78    77    1
    55   100    99    1
    56    77    76    1
    57    22    23    1
    58    40    37    1
    59    23    24    1
    60    25    24    2
    61    36    37    1
    62    24    26   am
    63    37    38    1
    64    32    33    2
    65    32    31    1
    66    35    34    1
    67    74    73   ar
    68    38    39    2
    69    38    41   am
    70    26    27    1
    71    21    20    1
    72    30    31    1
    73    30    28   am
    74    31    34    1
    75    41    42    1
    76    27    28    1
    77    19    20   ar
    78    19    17   ar
    79    28    29    2
    80    73    75   ar
    81    73    72    1
    82    44    43    2
    83    20    18   ar
    84    42    43    1
    85    42    45    1
    86    17    15   ar
    87    72    69    1
    88    69    68    1
    89    69    70    1
    90    43    49   am
    91    55    54    1
    92    55    56    1
    93    18    16   ar
    94    54    53    1
    95    71    70    2
    96    47    46    2
    97     9     8    1
    98    45    46    1
    99    46    48   am
   100    15    16   ar
   101    15    14    1
   102    49    50    1
   103    56    57    2
   104    50    53    1
   105    50    51    1
   106     8     7    1
   107    58    57    1
   108    14    11    1
   109    57    59    1
   110    51    52    2
   111     7     6    1
   112     4     3    2
   113    11    10    1
   114    11    12    1
   115     5     6    1
   116     5     2    1
   117    63    62    2
   118    13    12    2
   119     1     2    1
   120     3     2    1
   121    62    61    1
   122    64    61    1
   123    64    65    1
   124    67    65   ar
   125    61    60    1
   126    65    66   ar
