@<TRIPOS>MOLECULE
tmp/1cnoG00.pdb
 221 211 0 0 0
SMALL
GASTEIGER

@<TRIPOS>ATOM
      1  N          1.4380    6.4980   80.6250 N.3    10  LYS10      -0.1245
      2  CA         1.5760    6.5290   79.1700 C.3    10  LYS10       0.1561
      3  C          2.9930    6.9450   78.7290 C.2    10  LYS10       0.2260
      4  O          3.5030    6.4520   77.7230 O.2    10  LYS10      -0.2867
      5  CB         0.5220    7.4930   78.5890 C.3    10  LYS10       0.0271
      6  CG         0.5050    7.6330   77.0740 C.3    10  LYS10       0.0035
      7  CD         0.0790    6.3490   76.4150 C.3    10  LYS10       0.0206
      8  CE        -0.1010    6.5310   74.9190 C.3    10  LYS10       0.1093
      9  NZ        -0.6580    5.2970   74.2840 N.3    10  LYS10      -0.1314
     10  N          6.4720    5.0370   77.0310 N.3    13  VAL13      -0.1231
     11  CA         6.8830    4.9690   75.6290 C.3    13  VAL13       0.1692
     12  C          7.6310    6.2360   75.1870 C.2    13  VAL13       0.2592
     13  O          8.1370    6.2940   74.0750 O.2    13  VAL13      -0.2718
     14  CB         5.6780    4.7190   74.6600 C.3    13  VAL13       0.0266
     15  CG1        5.1070    3.3180   74.8620 C.3    13  VAL13       0.0020
     16  CG2        4.6080    5.7950   74.8370 C.3    13  VAL13       0.0020
     17  N          7.6910    7.2340   76.0610 N.am   14  CYS14      -0.1970
     18  CA         8.3620    8.5050   75.7810 C.3    14  CYS14       0.1712
     19  C          9.7150    8.6590   76.4610 C.2    14  CYS14       0.2296
     20  O         10.5720    9.4170   75.9900 O.2    14  CYS14      -0.2864
     21  CB         7.4970    9.6670   76.2920 C.3    14  CYS14       0.0983
     22  SG         5.8050    9.6430   75.7790 S.3    14  CYS14      -0.0798
     23  N         12.5440    6.8700   76.9000 N.3    16  ALA16      -0.1231
     24  CA        13.8170    6.5250   76.2750 C.3    16  ALA16       0.1694
     25  C         14.4380    7.7100   75.5490 C.2    16  ALA16       0.2592
     26  O         15.6530    7.7790   75.4100 O.2    16  ALA16      -0.2718
     27  CB        13.6340    5.3400   75.3320 C.3    16  ALA16       0.0304
     28  N         13.6110    8.6530   75.1200 N.am   17  CYS17      -0.1956
     29  CA        14.1080    9.8340   74.4340 C.3    17  CYS17       0.1843
     30  C         14.0670   11.1190   75.2560 C.2    17  CYS17       0.2625
     31  O         15.0610   11.8500   75.3230 O.2    17  CYS17      -0.2714
     32  CB        13.3240   10.0400   73.1700 C.3    17  CYS17       0.0997
     33  SG        13.5980    8.7770   71.8820 S.3    17  CYS17      -0.0797
     34  N         12.9230   11.4040   75.8710 N.am   18  HIS18      -0.1973
     35  CA        12.7850   12.6260   76.6590 C.3    18  HIS18       0.1656
     36  C         13.2160   12.4750   78.0960 C.2    18  HIS18       0.2291
     37  O         13.1230   13.4220   78.8670 O.2    18  HIS18      -0.2864
     38  CB        11.3590   13.1470   76.5650 C.3    18  HIS18       0.0771
     39  CG        11.0100   13.5760   75.1880 C.ar   18  HIS18       0.0820
     40  ND1       11.5050   14.6550   74.5370 N.ar   18  HIS18      -0.2267
     41  CD2       10.1830   12.9460   74.2550 C.ar   18  HIS18       0.1154
     42  CE1       11.0240   14.6800   73.2860 C.ar   18  HIS18       0.1986
     43  NE2       10.2190   13.6540   73.0910 N.ar   18  HIS18      -0.2212
     44  N         19.9160   16.1760   70.6820 N.3    28  ILE28      -0.1231
     45  CA        18.8540   16.5820   69.7380 C.3    28  ILE28       0.1692
     46  C         17.4200   16.2590   70.1850 C.2    28  ILE28       0.2592
     47  O         16.4710   16.5330   69.4520 O.2    28  ILE28      -0.2718
     48  CB        19.0720   16.1420   68.2550 C.3    28  ILE28       0.0266
     49  CG1       20.1590   15.0750   68.1440 C.3    28  ILE28       0.0019
     50  CG2       19.3600   17.3780   67.3820 C.3    28  ILE28       0.0020
     51  CD1       19.8540   14.0490   67.0840 C.3    28  ILE28       0.0001
     52  N         17.2940   15.6530   71.3650 N.am   29  TYR29      -0.1963
     53  CA        15.9970   15.3440   71.9600 C.3    29  TYR29       0.1756
     54  C         15.7640   16.4570   72.9840 C.2    29  TYR29       0.2461
     55  O         16.6040   16.7150   73.8410 O.2    29  TYR29      -0.2730
     56  CB        16.0170   13.9840   72.6650 C.3    29  TYR29       0.0574
     57  CG        16.1830   12.7810   71.7510 C.ar   29  TYR29      -0.0198
     58  CD1       15.8940   12.8640   70.3970 C.ar   29  TYR29      -0.0009
     59  CD2       16.6140   11.5590   72.2460 C.ar   29  TYR29      -0.0009
     60  CE1       16.0350   11.7670   69.5570 C.ar   29  TYR29       0.0417
     61  CE2       16.7540   10.4580   71.4100 C.ar   29  TYR29       0.0417
     62  CZ        16.4610   10.5720   70.0720 C.ar   29  TYR29       0.1957
     63  OH        16.6170    9.4820   69.2490 O.3    29  TYR29      -0.2866
     64  N         14.6240   17.1630   72.8690 N.am   30  PRO30      -0.2716
     65  CA        14.3580   18.2380   73.8410 C.3    30  PRO30       0.1536
     66  C         13.9140   17.7730   75.2280 C.2    30  PRO30       0.2599
     67  O         13.3460   16.6740   75.3900 O.2    30  PRO30      -0.2715
     68  CB        13.2490   19.0640   73.1650 C.3    30  PRO30       0.0310
     69  CG        12.6550   18.1710   72.1180 C.3    30  PRO30       0.0237
     70  CD        13.6260   17.0690   71.7960 C.3    30  PRO30       0.0939
     71  N         14.1180   18.6440   76.2160 N.am   31  ASN31      -0.1959
     72  CA        13.6670   18.4190   77.5800 C.3    31  ASN31       0.1819
     73  C         12.1940   18.8460   77.5250 C.2    31  ASN31       0.2621
     74  O         11.8570   19.8350   76.8420 O.2    31  ASN31      -0.2715
     75  CB        14.3670   19.3830   78.5620 C.3    31  ASN31       0.1195
     76  CG        15.8580   19.1420   78.6950 C.2    31  ASN31       0.2630
     77  OD1       16.3510   18.0260   78.4870 O.2    31  ASN31      -0.2716
     78  ND2       16.5970   20.1880   79.0800 N.am   31  ASN31      -0.0877
     79  N         11.3470   18.1620   78.2860 N.am   32  LEU32      -0.1977
     80  CA         9.9280   18.4780   78.3610 C.3    32  LEU32       0.1596
     81  C          9.5240   18.8860   79.7810 C.2    32  LEU32       0.2287
     82  O          8.4550   19.4640   79.9840 O.2    32  LEU32      -0.2864
     83  CB         9.0890   17.2720   77.9360 C.3    32  LEU32       0.0297
     84  CG         9.3600   16.6180   76.5720 C.3    32  LEU32       0.0022
     85  CD1        8.3510   15.4690   76.3610 C.3    32  LEU32       0.0001
     86  CD2        9.2700   17.6240   75.4370 C.3    32  LEU32       0.0001
     87  N          7.7280   22.2890   81.1180 N.3    35  GLN35      -0.1245
     88  CA         7.3960   23.0960   79.9600 C.3    35  GLN35       0.1566
     89  C          5.9100   23.4980   80.0760 C.2    35  GLN35       0.2260
     90  O          5.1170   22.7720   80.6960 O.2    35  GLN35      -0.2867
     91  CB         7.6440   22.2770   78.6860 C.3    35  GLN35       0.0367
     92  CG         7.2940   23.0160   77.3850 C.3    35  GLN35       0.0905
     93  CD         8.0030   24.3480   77.3080 C.2    35  GLN35       0.2608
     94  OE1        7.4820   25.3610   77.7780 O.2    35  GLN35      -0.2717
     95  NE2        9.2400   24.3420   76.8050 N.am   35  GLN35      -0.0878
     96  N          1.4070   24.6360   75.6170 N.3    39  TYR39      -0.1227
     97  CA         2.3830   24.5730   74.5360 C.3    39  TYR39       0.1736
     98  C          2.6840   23.1080   74.2230 C.2    39  TYR39       0.2595
     99  O          2.8270   22.7570   73.0610 O.2    39  TYR39      -0.2718
    100  CB         3.6900   25.2740   74.9070 C.3    39  TYR39       0.0548
    101  CG         4.7500   25.0500   73.8440 C.ar   39  TYR39      -0.0200
    102  CD1        4.5600   25.5080   72.5310 C.ar   39  TYR39      -0.0009
    103  CD2        5.9090   24.3220   74.1230 C.ar   39  TYR39      -0.0009
    104  CE1        5.4890   25.2270   71.5250 C.ar   39  TYR39       0.0417
    105  CE2        6.8430   24.0290   73.1240 C.ar   39  TYR39       0.0417
    106  CZ         6.6280   24.4880   71.8330 C.ar   39  TYR39       0.1957
    107  OH         7.5300   24.2020   70.8390 O.3    39  TYR39      -0.2866
    108  N          2.8420   22.2700   75.2570 N.am   40  LEU40      -0.1980
    109  CA         3.1170   20.8410   75.0340 C.3    40  LEU40       0.1596
    110  C          2.0070   20.2290   74.1990 C.2    40  LEU40       0.2287
    111  O          2.2810   19.4750   73.2680 O.2    40  LEU40      -0.2864
    112  CB         3.2560   20.0780   76.3590 C.3    40  LEU40       0.0297
    113  CG         4.5130   20.3970   77.1610 C.3    40  LEU40       0.0022
    114  CD1        4.4550   19.7370   78.5670 C.3    40  LEU40       0.0001
    115  CD2        5.7180   19.9470   76.3720 C.3    40  LEU40       0.0001
    116  N          2.2700   21.6030   70.5050 N.3    43  ALA43      -0.1231
    117  CA         3.3990   20.9590   69.8230 C.3    43  ALA43       0.1694
    118  C          3.0290   19.5320   69.4200 C.2    43  ALA43       0.2591
    119  O          3.2930   19.1080   68.2880 O.2    43  ALA43      -0.2718
    120  CB         4.6340   20.9380   70.7560 C.3    43  ALA43       0.0304
    121  N          2.4790   18.7780   70.3710 N.am   44  LEU44      -0.1980
    122  CA         2.0680   17.4030   70.1260 C.3    44  LEU44       0.1596
    123  C          1.0400   17.3120   68.9910 C.2    44  LEU44       0.2287
    124  O          1.1240   16.4070   68.1640 O.2    44  LEU44      -0.2864
    125  CB         1.5360   16.7490   71.4220 C.3    44  LEU44       0.0297
    126  CG         2.6050   16.1450   72.3330 C.3    44  LEU44       0.0022
    127  CD1        2.0360   15.7650   73.6630 C.3    44  LEU44       0.0001
    128  CD2        3.2520   14.9580   71.6440 C.3    44  LEU44       0.0001
    129  N          2.7550   17.8320   65.5360 N.3    47  TYR47      -0.1241
    130  CA         3.4600   16.6330   65.0550 C.3    47  TYR47       0.1605
    131  C          2.4680   15.6290   64.4740 C.2    47  TYR47       0.2264
    132  O          2.6550   15.1210   63.3730 O.2    47  TYR47      -0.2867
    133  CB         4.2380   15.9590   66.1880 C.3    47  TYR47       0.0534
    134  CG         5.5080   16.6840   66.5910 C.ar   47  TYR47      -0.0201
    135  CD1        6.5660   16.8310   65.6890 C.ar   47  TYR47      -0.0009
    136  CD2        5.6390   17.2490   67.8760 C.ar   47  TYR47      -0.0009
    137  CE1        7.7200   17.5420   66.0440 C.ar   47  TYR47       0.0417
    138  CE2        6.7920   17.9650   68.2390 C.ar   47  TYR47       0.0417
    139  CZ         7.8150   18.1050   67.3230 C.ar   47  TYR47       0.1957
    140  OH         8.9220   18.8350   67.6630 O.3    47  TYR47      -0.2866
    141  N          5.0420   19.8980   61.6090 N.3    52  ARG52      -0.1245
    142  CA         6.4390   20.1930   61.9130 C.3    52  ARG52       0.1563
    143  C          7.3370   19.3540   61.0320 C.2    52  ARG52       0.2260
    144  O          7.2030   18.1270   60.9990 O.2    52  ARG52      -0.2867
    145  CB         6.7820   19.9720   63.3870 C.3    52  ARG52       0.0307
    146  CG         6.2040   21.0460   64.2910 C.3    52  ARG52       0.0489
    147  CD         6.7210   20.9620   65.7280 C.3    52  ARG52       0.2205
    148  NE         6.2770   22.1070   66.5290 N.pl3  52  ARG52      -0.0865
    149  CZ         6.7030   22.3680   67.7540 C.cat  52  ARG52       0.5346
    150  NH1        7.5870   21.5560   68.3480 N.pl3  52  ARG52       0.1354
    151  NH2        6.2780   23.4620   68.3760 N.pl3  52  ARG52       0.1354
    152  N         11.5510   19.3090   59.0200 N.3    54  GLY54      -0.1225
    153  CA        12.9240   19.7340   59.2250 C.3    54  GLY54       0.1811
    154  C         13.6230   18.9970   60.3520 C.2    54  GLY54       0.2280
    155  O         12.9990   18.6540   61.3550 O.2    54  GLY54      -0.2866
    156  N         14.9560   16.5650   62.9540 N.3    56  GLN56      -0.1231
    157  CA        14.3750   15.3700   63.5770 C.3    56  GLN56       0.1698
    158  C         12.8400   15.4040   63.7730 C.2    56  GLN56       0.2592
    159  O         12.2850   14.5270   64.4340 O.2    56  GLN56      -0.2718
    160  CB        15.0400   15.1220   64.9310 C.3    56  GLN56       0.0381
    161  CG        16.5420   14.9100   64.8640 C.3    56  GLN56       0.0905
    162  CD        16.9580   14.0950   63.6770 C.2    56  GLN56       0.2608
    163  OE1       17.4340   14.6280   62.6650 O.2    56  GLN56      -0.2717
    164  NE2       16.7930   12.7920   63.7770 N.am   56  GLN56      -0.0878
    165  N         12.1690   16.4200   63.2250 N.am   57  ALA57      -0.1980
    166  CA        10.7160   16.5390   63.3430 C.3    57  ALA57       0.1597
    167  C          9.9780   15.3010   62.8620 C.2    57  ALA57       0.2287
    168  O          9.0570   14.8400   63.5310 O.2    57  ALA57      -0.2864
    169  CB        10.2010   17.7850   62.6140 C.3    57  ALA57       0.0319
    170  N         10.8740   12.3320   63.0080 N.3    59  VAL59      -0.1231
    171  CA        11.0820   11.2850   64.0040 C.3    59  VAL59       0.1692
    172  C          9.9870   11.4060   65.0920 C.2    59  VAL59       0.2591
    173  O          9.3830   10.3970   65.5010 O.2    59  VAL59      -0.2718
    174  CB        12.4890   11.4000   64.6820 C.3    59  VAL59       0.0266
    175  CG1       12.6150   10.3890   65.8160 C.3    59  VAL59       0.0020
    176  CG2       13.5990   11.2280   63.6570 C.3    59  VAL59       0.0020
    177  N          9.7420   12.6340   65.5540 N.am   60  MET60      -0.1979
    178  CA         8.7400   12.8570   66.5840 C.3    60  MET60       0.1605
    179  C          7.3380   12.6600   66.0220 C.2    60  MET60       0.2287
    180  O          6.4610   12.1830   66.7290 O.2    60  MET60      -0.2864
    181  CB         8.9050   14.2270   67.2550 C.3    60  MET60       0.0413
    182  CG         7.8960   14.4690   68.3680 C.3    60  MET60       0.0598
    183  SD         7.8920   13.1340   69.6270 S.3    60  MET60      -0.1393
    184  CE         6.0870   13.0010   69.9620 C.3    60  MET60       0.0692
    185  N          6.2170    9.2590   66.3430 N.3    63  GLN63      -0.1245
    186  CA         5.8170    8.8800   67.7010 C.3    63  GLN63       0.1566
    187  C          4.5170    9.5750   68.1440 C.2    63  GLN63       0.2260
    188  O          3.9520    9.2240   69.1870 O.2    63  GLN63      -0.2867
    189  CB         6.9280    9.2320   68.7040 C.3    63  GLN63       0.0367
    190  CG         8.2920    8.6190   68.4140 C.3    63  GLN63       0.0905
    191  CD         8.2500    7.1030   68.2570 C.2    63  GLN63       0.2608
    192  OE1        8.7560    6.5440   67.2700 O.2    63  GLN63      -0.2717
    193  NE2        7.6310    6.4240   69.2160 N.am   63  GLN63      -0.0878
    194  N         -1.1480    8.9040   68.8850 N.3    67  LEU67      -0.1245
    195  CA        -1.6520    9.4750   70.1320 C.3    67  LEU67       0.1561
    196  C         -3.0210   10.1120   69.9580 C.2    67  LEU67       0.2260
    197  O         -3.2370   10.8940   69.0290 O.2    67  LEU67      -0.2867
    198  CB        -0.6830   10.5350   70.6660 C.3    67  LEU67       0.0270
    199  CG         0.7870   10.1610   70.8880 C.3    67  LEU67       0.0019
    200  CD1        1.5890   11.4130   71.2780 C.3    67  LEU67       0.0001
    201  CD2        0.8980    9.1020   71.9810 C.3    67  LEU67       0.0001
    202  N         -0.4120   13.4530   78.6650 N.3    75  LEU75      -0.1245
    203  CA         1.0410   13.5820   78.5080 C.3    75  LEU75       0.1561
    204  C          1.5160   15.0080   78.8130 C.2    75  LEU75       0.2260
    205  O          2.4870   15.2020   79.5420 O.2    75  LEU75      -0.2867
    206  CB         1.4460   13.1620   77.0840 C.3    75  LEU75       0.0270
    207  CG         1.3170   11.6520   76.8610 C.3    75  LEU75       0.0019
    208  CD1        1.2430   11.3210   75.3590 C.3    75  LEU75       0.0001
    209  CD2        2.4720   10.9220   77.5790 C.3    75  LEU75       0.0001
    210  N          4.1620   16.0110   81.8830 N.3    79  TYR79      -0.1241
    211  CA         5.4570   16.6760   81.7130 C.3    79  TYR79       0.1605
    212  C          5.5210   18.0960   82.2810 C.2    79  TYR79       0.2264
    213  O          6.5260   18.4850   82.8920 O.2    79  TYR79      -0.2867
    214  CB         5.9160   16.6190   80.2590 C.3    79  TYR79       0.0534
    215  CG         6.4560   15.2560   79.8730 C.ar   79  TYR79      -0.0201
    216  CD1        7.6530   14.7830   80.4180 C.ar   79  TYR79      -0.0009
    217  CD2        5.7720   14.4370   78.9630 C.ar   79  TYR79      -0.0009
    218  CE1        8.1610   13.5260   80.0700 C.ar   79  TYR79       0.0417
    219  CE2        6.2730   13.1870   78.6000 C.ar   79  TYR79       0.0417
    220  CZ         7.4670   12.7350   79.1530 C.ar   79  TYR79       0.1957
    221  OH         7.9710   11.5060   78.7550 O.3    79  TYR79      -0.2866
@<TRIPOS>BOND
     1   152   153    1
     2   153   154    1
     3   154   155    2
     4   144   143    2
     5   143   142    1
     6   141   142    1
     7   142   145    1
     8   169   166    1
     9   163   162    2
    10   167   166    1
    11   167   168    2
    12   156   157    1
    13   170   171    1
    14   165   166    1
    15   165   158   am
    16   132   131    2
    17   145   146    1
    18   157   158    1
    19   157   160    1
    20   176   174    1
    21   162   164   am
    22   162   161    1
    23   158   159    2
    24   171   174    1
    25   171   172    1
    26   146   147    1
    27   131   130    1
    28   174   175    1
    29   161   160    1
    30   130   129    1
    31   130   133    1
    32   172   173    2
    33   172   177   am
    34   177   178    1
    35   135   137   ar
    36   135   134   ar
    37   147   148    1
    38   179   178    1
    39   179   180    2
    40   137   139   ar
    41   133   134    1
    42   185   186    1
    43   148   149    2
    44   178   181    1
    45   134   136   ar
    46    51    49    1
    47   181   182    1
    48   192   191    2
    49   139   140    1
    50   139   138   ar
    51    50    48    1
    52   186   187    1
    53   186   189    1
    54   149   150    1
    55   149   151    1
    56   136   138   ar
    57   187   188    2
    58    49    48    1
    59   124   123    2
    60    48    45    1
    61   191   190    1
    62   191   193   am
    63   119   118    2
    64   182   183    1
    65   190   189    1
    66   194   195    1
    67   123   122    1
    68   197   196    2
    69    63    62    1
    70   118   117    1
    71   118   121   am
    72    47    46    2
    73    60    62   ar
    74    60    58   ar
    75   183   184    1
    76    45    46    1
    77    45    44    1
    78   117   116    1
    79   117   120    1
    80   196   195    1
    81    62    61   ar
    82   122   121    1
    83   122   125    1
    84   195   198    1
    85    46    52   am
    86    58    57   ar
    87   198   199    1
    88   107   106    1
    89   199   200    1
    90   199   201    1
    91    52    53    1
    92    61    59   ar
    93   125   126    1
    94   104   106   ar
    95   104   102   ar
    96   128   126    1
    97    57    59   ar
    98    57    56    1
    99    70    69    1
   100    70    64    1
   101   106   105   ar
   102    33    32    1
   103    53    56    1
   104    53    54    1
   105    69    68    1
   106   126   127    1
   107   102   101   ar
   108    64    54   am
   109    64    65    1
   110    54    55    2
   111    99    98    2
   112    43    42   ar
   113    43    41   ar
   114   105   103   ar
   115    68    65    1
   116    32    29    1
   117   111   110    2
   118    42    40   ar
   119    65    66    1
   120   101   103   ar
   121   101   100    1
   122    13    12    2
   123   110   109    1
   124    98    97    1
   125    98   108   am
   126    41    39   ar
   127     9     8    1
   128    29    28    1
   129    29    30    1
   130    97   100    1
   131    97    96    1
   132    40    39   ar
   133    14    16    1
   134    14    15    1
   135    14    11    1
   136     8     7    1
   137   109   108    1
   138   109   112    1
   139    28    25   am
   140    12    11    1
   141    12    17   am
   142    39    38    1
   143    66    67    2
   144    66    71   am
   145    30    31    2
   146    30    34   am
   147    27    24    1
   148   208   207    1
   149    26    25    2
   150    86    84    1
   151    25    24    1
   152    11    10    1
   153    22    21    1
   154    18    17    1
   155    18    21    1
   156    18    19    1
   157    34    35    1
   158    20    19    2
   159    71    72    1
   160    24    23    1
   161   112   113    1
   162    85    84    1
   163   115   113    1
   164     7     6    1
   165    38    35    1
   166    84    83    1
   167    35    36    1
   168    95    93   am
   169    74    73    2
   170   207   206    1
   171   207   209    1
   172     6     5    1
   173   206   203    1
   174   113   114    1
   175    93    92    1
   176    93    94    2
   177    92    91    1
   178    73    72    1
   179    73    79   am
   180    72    75    1
   181     4     3    2
   182    83    80    1
   183    36    37    2
   184    79    80    1
   185    80    81    1
   186    77    76    2
   187   203   202    1
   188   203   204    1
   189    75    76    1
   190     5     2    1
   191   219   217   ar
   192   219   220   ar
   193    91    88    1
   194    76    78   am
   195     3     2    1
   196   221   220    1
   197   204   205    2
   198   217   215   ar
   199   220   218   ar
   200     2     1    1
   201    81    82    2
   202   215   214    1
   203   215   216   ar
   204    88    89    1
   205    88    87    1
   206   218   216   ar
   207    89    90    2
   208   214   211    1
   209   211   210    1
   210   211   212    1
   211   212   213    2
