@<TRIPOS>MOLECULE
tmp/1cnwA00.pdb
 152 149 0 0 0
SMALL
GASTEIGER

@<TRIPOS>ATOM
      1  N         -0.8450   -2.0850    6.3580 N.3    61  HIS61      -0.1241
      2  CA        -0.8340   -2.8770    7.6290 C.3    61  HIS61       0.1621
      3  C         -2.2740   -3.4190    7.9120 C.2    61  HIS61       0.2264
      4  O         -2.4340   -4.3790    8.6890 O.2    61  HIS61      -0.2867
      5  CB        -0.2930   -2.1680    8.8300 C.3    61  HIS61       0.0745
      6  CG        -0.7940   -0.8340    9.1130 C.ar   61  HIS61       0.0817
      7  ND1       -0.1280    0.2920    8.6890 N.ar   61  HIS61      -0.2268
      8  CD2       -1.8930   -0.4590    9.8900 C.ar   61  HIS61       0.1154
      9  CE1       -0.7940    1.2930    9.1130 C.ar   61  HIS61       0.1986
     10  NE2       -1.8930    0.9590    9.8900 N.ar   61  HIS61      -0.2212
     11  N        -12.6800    6.3800   11.3030 N.3    89  GLN89      -0.1245
     12  CA       -12.3920    5.1710   10.5260 C.3    89  GLN89       0.1566
     13  C        -12.6370    3.8780   11.3030 C.2    89  GLN89       0.2260
     14  O        -12.7550    3.9200   12.5740 O.2    89  GLN89      -0.2867
     15  CB       -10.9640    5.1710    9.9610 C.3    89  GLN89       0.0367
     16  CG        -9.8550    5.3380   10.9500 C.3    89  GLN89       0.0905
     17  CD        -9.1360    4.0450   11.3030 C.2    89  GLN89       0.2608
     18  OE1       -9.5440    2.9190   11.2320 O.2    89  GLN89      -0.2717
     19  NE2       -7.8980    4.2950   11.7970 N.am   89  GLN89      -0.0878
     20  N        -11.3250   -0.4170   11.0200 N.3    91  HIS91      -0.1241
     21  CA       -10.3480   -1.3760   10.3840 C.3    91  HIS91       0.1621
     22  C        -10.4410   -2.6270   11.2320 C.2    91  HIS91       0.2264
     23  O        -11.1010   -2.7110   12.2920 O.2    91  HIS91      -0.2867
     24  CB        -8.9820   -0.7920   10.3840 C.3    91  HIS91       0.0745
     25  CG        -8.4350   -0.5000   11.7270 C.ar   91  HIS91       0.0817
     26  ND1       -8.4540    0.7510   12.2920 N.ar   91  HIS91      -0.2268
     27  CD2       -7.8630   -1.3760   12.6450 C.ar   91  HIS91       0.1154
     28  CE1       -7.9130    0.6250   13.4930 C.ar   91  HIS91       0.1986
     29  NE2       -7.5410   -0.6260   13.7050 N.ar   91  HIS91      -0.2212
     30  N         -8.1310   -6.4220   12.3620 N.3    93  HIS93      -0.1241
     31  CA        -6.8990   -7.1720   12.7160 C.3    93  HIS93       0.1621
     32  C         -7.4170   -8.6320   12.5740 C.2    93  HIS93       0.2264
     33  O         -8.4850   -8.8820   13.0690 O.2    93  HIS93      -0.2867
     34  CB        -6.3090   -6.9640   14.0580 C.3    93  HIS93       0.0745
     35  CG        -5.9990   -5.5040   14.3400 C.ar   93  HIS93       0.0817
     36  ND1       -4.7480   -5.0040   14.1290 N.ar   93  HIS93      -0.2268
     37  CD2       -6.8350   -4.5450   14.7640 C.ar   93  HIS93       0.1154
     38  CE1       -4.8210   -3.7530   14.4110 C.ar   93  HIS93       0.1986
     39  NE2       -6.0850   -3.4190   14.8350 N.ar   93  HIS93      -0.2212
     40  N        -12.0810   -2.5440   14.9060 N.3   116  HIS116     -0.1241
     41  CA       -11.8140   -1.3340   15.6830 C.3   116  HIS116      0.1621
     42  C        -12.4840   -0.1250   14.9760 C.2   116  HIS116      0.2264
     43  O        -12.1470    0.1250   13.8460 O.2   116  HIS116     -0.2867
     44  CB       -10.3740   -1.1260   15.8950 C.3   116  HIS116      0.0745
     45  CG        -9.6130   -2.1270   16.7420 C.ar  116  HIS116      0.0817
     46  ND1       -8.2530   -2.3350   16.6010 N.ar  116  HIS116     -0.2268
     47  CD2      -10.1270   -2.9610   17.7310 C.ar  116  HIS116      0.1154
     48  CE1       -7.9790   -3.2530   17.5190 C.ar  116  HIS116      0.1986
     49  NE2       -9.0420   -3.6700   18.1550 N.ar  116  HIS116     -0.2212
     50  N        -12.6800    3.5860   15.4000 N.3   118  VAL118     -0.1245
     51  CA       -11.8870    4.6700   15.9650 C.3   118  VAL118      0.1561
     52  C        -12.6560    6.0050   15.9650 C.2   118  VAL118      0.2260
     53  O        -13.2100    6.4220   14.9760 O.2   118  VAL118     -0.2867
     54  CB       -10.5080    4.7540   15.2590 C.3   118  VAL118      0.0252
     55  CG1       -9.5200    5.7130   15.8950 C.3   118  VAL118      0.0019
     56  CG2       -9.9160    3.3360   15.1180 C.3   118  VAL118      0.0019
     57  N         -8.2560   15.4710   14.9760 N.3   127  PHE127     -0.1227
     58  CA        -7.7080   14.1780   15.3290 C.3   127  PHE127      0.1736
     59  C         -6.2570   14.3030   15.8240 C.2   127  PHE127      0.2596
     60  O         -5.8740   13.6780   16.8130 O.2   127  PHE127     -0.2718
     61  CB        -7.8830   13.1770   14.1990 C.3   127  PHE127      0.0547
     62  CG        -7.2550   11.8430   14.4110 C.ar  127  PHE127     -0.0202
     63  CD1       -7.9330   10.8420   15.0470 C.ar  127  PHE127     -0.0042
     64  CD2       -5.9070   11.6340   13.9870 C.ar  127  PHE127     -0.0042
     65  CE1       -7.3050    9.5910   15.2590 C.ar  127  PHE127     -0.0003
     66  CE2       -5.2790   10.4250   14.1990 C.ar  127  PHE127     -0.0003
     67  CZ        -5.9990    9.4240   14.8350 C.ar  127  PHE127     -0.0000
     68  N         -5.5360   15.1370   15.1880 N.am  128  GLY128     -0.1957
     69  CA        -4.1150   15.3870   15.4710 C.3   128  GLY128      0.1869
     70  C         -3.9710   15.8880   16.8840 C.2   128  GLY128      0.2309
     71  O         -3.0450   15.4710   17.5900 O.2   128  GLY128     -0.2863
     72  N         -4.8530   13.0940   19.7800 N.3   131  VAL131     -0.1231
     73  CA        -3.7130   12.1760   19.9920 C.3   131  VAL131      0.1692
     74  C         -2.6290   12.7600   20.9100 C.2   131  VAL131      0.2591
     75  O         -1.5790   12.0930   20.9810 O.2   131  VAL131     -0.2718
     76  CB        -3.1930   11.5930   18.6500 C.3   131  VAL131      0.0266
     77  CG1       -4.1560   10.5500   18.0850 C.3   131  VAL131      0.0020
     78  CG2       -2.8070   12.6350   17.6610 C.3   131  VAL131      0.0020
     79  N         -2.8610   13.8860   21.4750 N.am  132  GLN132     -0.1979
     80  CA        -1.9050   14.5120   22.3940 C.3   132  GLN132      0.1601
     81  C         -2.5290   14.5530   23.8070 C.2   132  GLN132      0.2287
     82  O         -1.9140   15.0950   24.7250 O.2   132  GLN132     -0.2864
     83  CB        -1.5380   15.9290   21.9700 C.3   132  GLN132      0.0394
     84  CG        -0.9570   15.9290   20.5570 C.3   132  GLN132      0.0908
     85  CD        -0.6810   17.3050   19.9920 C.2   132  GLN132      0.2608
     86  OE1       -0.2160   17.4310   18.8620 O.2   132  GLN132     -0.2717
     87  NE2       -0.9690   18.3480   20.7690 N.am  132  GLN132     -0.0878
     88  N        -11.8770    3.7530   21.3340 N.3   139  VAL139     -0.1245
     89  CA       -11.9420    2.7100   20.2740 C.3   139  VAL139      0.1561
     90  C        -12.9250    1.6260   20.7690 C.2   139  VAL139      0.2260
     91  O        -12.7740    1.1260   21.8290 O.2   139  VAL139     -0.2867
     92  CB       -10.5940    2.2100   19.8510 C.3   139  VAL139      0.0252
     93  CG1      -10.7500    1.2090   18.6500 C.3   139  VAL139      0.0019
     94  CG2       -9.6050    3.3360   19.4970 C.3   139  VAL139      0.0019
     95  N         -2.9520    3.0860   21.3340 N.3   194  LEU194     -0.1231
     96  CA        -3.0970    2.5850   19.9210 C.3   194  LEU194      0.1693
     97  C         -2.4320    1.2090   19.9920 C.2   194  LEU194      0.2593
     98  O         -1.5000    1.0840   20.8400 O.2   194  LEU194     -0.2718
     99  CB        -2.3880    3.4610   19.0030 C.3   194  LEU194      0.0284
    100  CG        -2.8630    4.9210   18.8620 C.3   194  LEU194      0.0019
    101  CD1       -2.0930    5.6710   17.8730 C.3   194  LEU194      0.0001
    102  CD2       -4.3880    4.8370   18.6500 C.3   194  LEU194      0.0001
    103  N         -2.7910    0.2920   19.0740 N.am  195  THR195     -0.1939
    104  CA        -2.1500   -1.0010   19.0740 C.3   195  THR195      0.2028
    105  C         -1.0630   -1.0840   18.0140 C.2   195  THR195      0.2643
    106  O         -0.3610   -2.1270   17.9430 O.2   195  THR195     -0.2714
    107  CB        -3.1750   -2.1680   19.0740 C.3   195  THR195      0.1808
    108  OG1       -3.8870   -2.0020   17.8730 O.3   195  THR195     -0.2208
    109  CG2       -4.0430   -2.1680   20.2740 C.3   195  THR195      0.0379
    110  N         -0.9030    0.0000   17.2370 N.am  196  THR196     -0.1937
    111  CA         0.2090    0.0000   16.2480 C.3   196  THR196      0.2013
    112  C          0.9890    1.2930   16.5300 C.2   196  THR196      0.2484
    113  O          0.4210    2.2100   17.2370 O.2   196  THR196     -0.2729
    114  CB        -0.2770    0.0000   14.8350 C.3   196  THR196      0.1807
    115  OG1       -0.8810    1.2930   14.6940 O.3   196  THR196     -0.2208
    116  CG2       -1.2530   -1.0840   14.4820 C.3   196  THR196      0.0379
    117  N          2.1850    1.3340   16.0360 N.am  197  PRO197     -0.2715
    118  CA         3.0450    2.5850   16.1770 C.3   197  PRO197      0.1521
    119  C          2.1920    3.7110   15.6830 C.2   197  PRO197      0.2440
    120  O          1.4250    3.5030   14.6940 O.2   197  PRO197     -0.2731
    121  CB         4.3150    2.1270   15.4000 C.3   197  PRO197      0.0310
    122  CG         4.3700    0.6250   15.6830 C.3   197  PRO197      0.0237
    123  CD         2.9000    0.2920   15.2590 C.3   197  PRO197      0.0939
    124  N          2.2150    4.8790   16.2480 N.am  198  PRO198     -0.2727
    125  CA         3.0310    5.2540   17.3780 C.3   198  PRO198      0.1402
    126  C          2.6630    4.8370   18.7910 C.2   198  PRO198      0.2269
    127  O          3.2780    5.3790   19.7090 O.2   198  PRO198     -0.2865
    128  CB         3.1110    6.7970   17.2370 C.3   198  PRO198      0.0296
    129  CG         1.8430    7.2140   16.5300 C.3   198  PRO198      0.0237
    130  CD         1.3620    6.0050   15.7530 C.3   198  PRO198      0.0939
    131  N          0.4700    5.5460   20.9810 N.3   200  LEU200     -0.1245
    132  CA         0.1460    6.6300   21.8990 C.3   200  LEU200      0.1561
    133  C         -0.8810    6.2130   22.8880 C.2   200  LEU200      0.2260
    134  O         -1.8560    5.5040   22.5350 O.2   200  LEU200     -0.2867
    135  CB        -0.3410    7.7980   20.9810 C.3   200  LEU200      0.0270
    136  CG         0.7280    8.3400   19.9920 C.3   200  LEU200      0.0019
    137  CD1        0.1620    9.5080   19.2150 C.3   200  LEU200      0.0001
    138  CD2        1.9770    8.7150   20.7690 C.3   200  LEU200      0.0001
    139  N        -10.5780    2.2930   25.8550 N.3   205  TRP205     -0.1241
    140  CA       -11.0340    1.0840   25.1490 C.3   205  TRP205      0.1605
    141  C        -12.4010    0.6250   25.6430 C.2   205  TRP205      0.2264
    142  O        -12.6290    0.5420   26.8440 O.2   205  TRP205     -0.2867
    143  CB        -9.9610    0.0000   25.2900 C.3   205  TRP205      0.0550
    144  CG        -8.8920    0.1250   24.3010 C.ar  205  TRP205      0.0003
    145  CD1       -7.6900    0.7510   24.4420 C.ar  205  TRP205      0.0946
    146  CD2       -8.9510   -0.3340   22.8880 C.ar  205  TRP205      0.0152
    147  NE1       -6.9930    0.6670   23.2410 N.ar  205  TRP205     -0.2442
    148  CE2       -7.7360    0.0000   22.3230 C.ar  205  TRP205      0.0810
    149  CE3       -9.9200   -1.0430   22.1820 C.ar  205  TRP205      0.0012
    150  CZ2       -7.4720   -0.2920   20.9810 C.ar  205  TRP205      0.0191
    151  CZ3       -9.6740   -1.3340   20.9100 C.ar  205  TRP205      0.0001
    152  CH2       -8.4840   -0.9590   20.2740 C.ar  205  TRP205      0.0015
@<TRIPOS>BOND
     1     1     2    1
     2     2     3    1
     3     2     5    1
     4     3     4    2
     5     7     6   ar
     6     7     9   ar
     7     5     6    1
     8     6     8   ar
     9     9    10   ar
    10     8    10   ar
    11    15    12    1
    12    15    16    1
    13    21    24    1
    14    21    20    1
    15    21    22    1
    16    24    25    1
    17    12    13    1
    18    12    11    1
    19    16    17    1
    20    18    17    2
    21    22    23    2
    22    13    14    2
    23    17    19   am
    24    25    26   ar
    25    25    27   ar
    26    26    28   ar
    27    30    31    1
    28    32    31    1
    29    32    33    2
    30    27    29   ar
    31    31    34    1
    32    28    29   ar
    33    43    42    2
    34    64    66   ar
    35    64    62   ar
    36    34    35    1
    37    36    35   ar
    38    36    38   ar
    39    66    67   ar
    40    61    62    1
    41    61    58    1
    42    35    37   ar
    43    38    39   ar
    44    62    63   ar
    45   116   114    1
    46   115   114    1
    47   120   119    2
    48    37    39   ar
    49   114   111    1
    50    67    65   ar
    51    40    41    1
    52    42    41    1
    53    53    52    2
    54    57    58    1
    55    63    65   ar
    56    56    54    1
    57    68    69    1
    58    68    59   am
    59    54    55    1
    60    54    51    1
    61   123   122    1
    62   123   117    1
    63    58    59    1
    64    50    51    1
    65   121   122    1
    66   121   118    1
    67    69    70    1
    68    41    44    1
    69   119   118    1
    70   119   124   am
    71   130   124    1
    72   130   129    1
    73    59    60    2
    74    44    45    1
    75    51    52    1
    76   117   118    1
    77   117   112   am
    78   124   125    1
    79   111   112    1
    80   111   110    1
    81   129   128    1
    82   112   113    2
    83    46    45   ar
    84    46    48   ar
    85    45    47   ar
    86    70    71    2
    87   128   125    1
    88   110   105   am
    89   125   126    1
    90    48    49   ar
    91    78    76    1
    92    47    49   ar
    93   108   107    1
    94   101   100    1
    95   106   105    2
    96   105   104    1
    97    77    76    1
    98    76    73    1
    99   102   100    1
   100    93    92    1
   101   126   127    2
   102    86    85    2
   103   100    99    1
   104    99    96    1
   105   103   104    1
   106   103    97   am
   107   104   107    1
   108   107   109    1
   109   137   136    1
   110    94    92    1
   111    72    73    1
   112    92    89    1
   113    96    97    1
   114    96    95    1
   115    73    74    1
   116    97    98    2
   117   136   138    1
   118   136   135    1
   119    85    84    1
   120    85    87   am
   121    89    90    1
   122    89    88    1
   123   152   151   ar
   124   152   150   ar
   125    84    83    1
   126    90    91    2
   127    74    75    2
   128    74    79   am
   129   151   149   ar
   130   135   132    1
   131   131   132    1
   132   150   148   ar
   133    79    80    1
   134   132   133    1
   135    83    80    1
   136   149   146   ar
   137   148   146   ar
   138   148   147   ar
   139    80    81    1
   140   134   133    2
   141   146   144   ar
   142   147   145   ar
   143    81    82    2
   144   144   145   ar
   145   144   143    1
   146   140   143    1
   147   140   141    1
   148   140   139    1
   149   141   142    2
