@<TRIPOS>MOLECULE
tmp/1cnyA00.pdb
 142 139 0 0 0
SMALL
GASTEIGER

@<TRIPOS>ATOM
      1  N        -12.5940    6.2970   11.3030 N.3    89  GLN89      -0.1245
      2  CA       -12.3070    5.1290   10.5260 C.3    89  GLN89       0.1566
      3  C        -12.5090    3.8360   11.3030 C.2    89  GLN89       0.2260
      4  O        -12.5660    3.9200   12.5040 O.2    89  GLN89      -0.2867
      5  CB       -10.8540    5.1290   10.0310 C.3    89  GLN89       0.0367
      6  CG        -9.8060    5.2960   11.0910 C.3    89  GLN89       0.0905
      7  CD        -9.0020    4.0450   11.4440 C.2    89  GLN89       0.2608
      8  OE1       -9.4960    2.9190   11.3730 O.2    89  GLN89      -0.2717
      9  NE2       -7.7700    4.2530   11.7970 N.am   89  GLN89      -0.0878
     10  N        -11.1540   -0.4170   11.0200 N.3    91  HIS91      -0.1241
     11  CA       -10.1770   -1.2930   10.3840 C.3    91  HIS91       0.1621
     12  C        -10.2520   -2.6270   11.1620 C.2    91  HIS91       0.2264
     13  O        -10.9550   -2.6690   12.2210 O.2    91  HIS91      -0.2867
     14  CB        -8.7680   -0.7090   10.3840 C.3    91  HIS91       0.0745
     15  CG        -8.2820   -0.3750   11.7970 C.ar   91  HIS91       0.0817
     16  ND1       -8.5150    0.8760   12.3620 N.ar   91  HIS91      -0.2268
     17  CD2       -7.6680   -1.1680   12.7160 C.ar   91  HIS91       0.1154
     18  CE1       -8.0170    0.7920   13.5630 C.ar   91  HIS91       0.1986
     19  NE2       -7.4920   -0.4170   13.8460 N.ar   91  HIS91      -0.2212
     20  N         -8.0030   -6.4220   12.3620 N.3    93  HIS93      -0.1241
     21  CA        -6.8140   -7.1720   12.7160 C.3    93  HIS93       0.1621
     22  C         -7.3320   -8.6320   12.5740 C.2    93  HIS93       0.2264
     23  O         -8.4180   -8.8820   13.1400 O.2    93  HIS93      -0.2867
     24  CB        -6.2850   -7.0060   14.1290 C.3    93  HIS93       0.0745
     25  CG        -5.9130   -5.5460   14.3400 C.ar   93  HIS93       0.0817
     26  ND1       -4.6200   -5.1710   14.1290 N.ar   93  HIS93      -0.2268
     27  CD2       -6.6460   -4.5040   14.6940 C.ar   93  HIS93       0.1154
     28  CE1       -4.5890   -3.8780   14.3400 C.ar   93  HIS93       0.1986
     29  NE2       -5.7920   -3.4610   14.6940 N.ar   93  HIS93      -0.2212
     30  N        -12.0140   -2.5440   14.9760 N.3   116  HIS116     -0.1241
     31  CA       -11.7890   -1.3340   15.7530 C.3   116  HIS116      0.1621
     32  C        -12.4170   -0.1250   15.0470 C.2   116  HIS116      0.2264
     33  O        -12.0370    0.2080   13.9170 O.2   116  HIS116     -0.2867
     34  CB       -10.2890   -1.0430   15.8950 C.3   116  HIS116      0.0745
     35  CG        -9.5700   -2.0850   16.7420 C.ar  116  HIS116      0.0817
     36  ND1       -8.2590   -2.3770   16.4600 N.ar  116  HIS116     -0.2268
     37  CD2      -10.0420   -2.8360   17.7310 C.ar  116  HIS116      0.1154
     38  CE1       -7.9430   -3.2940   17.3780 C.ar  116  HIS116      0.1986
     39  NE2       -8.9990   -3.6280   18.1550 N.ar  116  HIS116     -0.2212
     40  N        -12.6670    3.6700   15.1880 N.3   118  VAL118     -0.1245
     41  CA       -11.9120    4.7540   15.8950 C.3   118  VAL118      0.1561
     42  C        -12.6560    6.0880   15.9650 C.2   118  VAL118      0.2260
     43  O        -13.2100    6.5470   14.9760 O.2   118  VAL118     -0.2867
     44  CB       -10.4890    4.8370   15.1880 C.3   118  VAL118      0.0252
     45  CG1       -9.5200    5.7960   15.8950 C.3   118  VAL118      0.0019
     46  CG2       -9.8970    3.4610   15.0470 C.3   118  VAL118      0.0019
     47  N         -8.2810   15.3460   14.9060 N.3   127  PHE127     -0.1227
     48  CA        -7.7320   14.0110   15.2590 C.3   127  PHE127      0.1736
     49  C         -6.3420   14.2200   15.8240 C.2   127  PHE127      0.2596
     50  O         -5.9780   13.6780   16.8840 O.2   127  PHE127     -0.2718
     51  CB        -7.8220   13.0520   14.1290 C.3   127  PHE127      0.0547
     52  CG        -7.2130   11.7180   14.4110 C.ar  127  PHE127     -0.0202
     53  CD1       -8.0190   10.7170   15.0470 C.ar  127  PHE127     -0.0042
     54  CD2       -5.9010   11.4260   14.1290 C.ar  127  PHE127     -0.0042
     55  CE1       -7.4520    9.4660   15.3290 C.ar  127  PHE127     -0.0003
     56  CE2       -5.3340   10.2160   14.4110 C.ar  127  PHE127     -0.0003
     57  CZ        -6.0970    9.2160   15.0470 C.ar  127  PHE127     -0.0000
     58  N         -5.5600   15.0120   15.1180 N.am  128  GLY128     -0.1957
     59  CA        -4.2010   15.3460   15.4710 C.3   128  GLY128      0.1869
     60  C         -3.9710   15.8460   16.8840 C.2   128  GLY128      0.2309
     61  O         -2.9410   15.4710   17.5190 O.2   128  GLY128     -0.2863
     62  N         -4.8350   13.0940   19.7090 N.3   131  VAL131     -0.1231
     63  CA        -3.7560   12.1350   19.9920 C.3   131  VAL131      0.1692
     64  C         -2.7140   12.7180   20.9100 C.2   131  VAL131      0.2591
     65  O         -1.6590   12.0100   21.1220 O.2   131  VAL131     -0.2718
     66  CB        -3.1930   11.5510   18.6500 C.3   131  VAL131      0.0266
     67  CG1       -4.2710   10.8000   17.8730 C.3   131  VAL131      0.0020
     68  CG2       -2.5020   12.5930   17.8020 C.3   131  VAL131      0.0020
     69  N         -2.9470   13.8860   21.4750 N.am  132  GLN132     -0.1979
     70  CA        -1.9470   14.4700   22.3940 C.3   132  GLN132      0.1601
     71  C         -2.6140   14.4700   23.8070 C.2   132  GLN132      0.2287
     72  O         -2.0180   14.9290   24.7960 O.2   132  GLN132     -0.2864
     73  CB        -1.4770   15.8040   21.8990 C.3   132  GLN132      0.0394
     74  CG        -0.5420   15.5960   20.7690 C.3   132  GLN132      0.0908
     75  CD        -0.4980   16.7630   19.7800 C.2   132  GLN132      0.2608
     76  OE1       -0.3560   16.5970   18.5790 O.2   132  GLN132     -0.2717
     77  NE2       -0.6450   17.9730   20.3450 N.am  132  GLN132     -0.0878
     78  N        -11.8580    3.8360   21.2630 N.3   139  VAL139     -0.1245
     79  CA       -11.9850    2.7940   20.2740 C.3   139  VAL139      0.1561
     80  C        -12.9920    1.7510   20.6980 C.2   139  VAL139      0.2260
     81  O        -12.8600    1.2930   21.8290 O.2   139  VAL139     -0.2867
     82  CB       -10.5940    2.1680   19.8510 C.3   139  VAL139      0.0252
     83  CG1      -10.7930    1.2090   18.6500 C.3   139  VAL139      0.0019
     84  CG2       -9.4950    3.1690   19.5680 C.3   139  VAL139      0.0019
     85  N         -2.9100    3.0020   21.3340 N.3   194  LEU194     -0.1231
     86  CA        -3.1150    2.5850   19.9920 C.3   194  LEU194      0.1693
     87  C         -2.3040    1.2510   19.9920 C.2   194  LEU194      0.2593
     88  O         -1.3110    1.2090   20.7690 O.2   194  LEU194     -0.2718
     89  CB        -2.4730    3.5030   19.0030 C.3   194  LEU194      0.0284
     90  CG        -2.9430    4.9620   19.0030 C.3   194  LEU194      0.0019
     91  CD1       -1.9050    5.7960   18.2960 C.3   194  LEU194      0.0001
     92  CD2       -4.2960    5.0870   18.2960 C.3   194  LEU194      0.0001
     93  N         -2.7240    0.3340   19.1440 N.am  195  THR195     -0.1939
     94  CA        -2.0650   -1.0010   19.0740 C.3   195  THR195      0.2028
     95  C         -1.0440   -1.0430   17.9430 C.2   195  THR195      0.2643
     96  O         -0.4340   -2.1270   17.7310 O.2   195  THR195     -0.2714
     97  CB        -3.1320   -2.1270   19.0740 C.3   195  THR195      0.1808
     98  OG1       -3.7400   -2.0020   17.8020 O.3   195  THR195     -0.2208
     99  CG2       -4.1100   -2.0020   20.2040 C.3   195  THR195      0.0379
    100  N         -0.8360    0.0830   17.3070 N.am  196  THR196     -0.1937
    101  CA         0.2090    0.2080   16.2480 C.3   196  THR196      0.2013
    102  C          0.9460    1.5010   16.5300 C.2   196  THR196      0.2484
    103  O          0.3720    2.4600   17.0960 O.2   196  THR196     -0.2729
    104  CB        -0.4060    0.1670   14.8350 C.3   196  THR196      0.1807
    105  OG1       -1.1740    1.3760   14.8350 O.3   196  THR196     -0.2208
    106  CG2       -1.3570   -1.0010   14.5520 C.3   196  THR196      0.0379
    107  N          2.2100    1.5010   16.1070 N.am  197  PRO197     -0.2715
    108  CA         3.0510    2.6690   16.3180 C.3   197  PRO197      0.1521
    109  C          2.2160    3.7950   15.7530 C.2   197  PRO197      0.2440
    110  O          1.4920    3.5860   14.7640 O.2   197  PRO197     -0.2731
    111  CB         4.3450    2.2520   15.6120 C.3   197  PRO197      0.0310
    112  CG         4.4370    0.7510   15.7530 C.3   197  PRO197      0.0237
    113  CD         2.9300    0.3750   15.4710 C.3   197  PRO197      0.0939
    114  N          2.2820    5.0040   16.3180 N.am  198  PRO198     -0.2727
    115  CA         3.1590    5.3790   17.3780 C.3   198  PRO198      0.1402
    116  C          2.7910    4.9620   18.7910 C.2   198  PRO198      0.2269
    117  O          3.3880    5.4630   19.7800 O.2   198  PRO198     -0.2865
    118  CB         3.2150    6.9220   17.1660 C.3   198  PRO198      0.0296
    119  CG         1.9100    7.3390   16.6010 C.3   198  PRO198      0.0237
    120  CD         1.5090    6.1300   15.6830 C.3   198  PRO198      0.0939
    121  N          0.5370    5.6290   21.0520 N.3   200  LEU200     -0.1245
    122  CA         0.1880    6.7550   21.8990 C.3   200  LEU200      0.1561
    123  C         -0.9230    6.3380   22.8880 C.2   200  LEU200      0.2260
    124  O         -1.9470    5.7960   22.3940 O.2   200  LEU200     -0.2867
    125  CB        -0.3170    7.9230   21.0520 C.3   200  LEU200      0.0270
    126  CG         0.6850    8.3400   19.9920 C.3   200  LEU200      0.0019
    127  CD1        0.0280    9.3820   19.0740 C.3   200  LEU200      0.0001
    128  CD2        1.9650    8.8400   20.4860 C.3   200  LEU200      0.0001
    129  N        -10.5530    2.2520   25.9260 N.3   205  TRP205     -0.1241
    130  CA       -10.9920    1.1260   25.1490 C.3   205  TRP205      0.1605
    131  C        -12.3590    0.6250   25.6430 C.2   205  TRP205      0.2264
    132  O        -12.6290    0.5840   26.8440 O.2   205  TRP205     -0.2867
    133  CB        -9.9850   -0.0420   25.2190 C.3   205  TRP205      0.0550
    134  CG        -8.8740    0.1250   24.2300 C.ar  205  TRP205      0.0003
    135  CD1       -7.6480    0.7510   24.4420 C.ar  205  TRP205      0.0946
    136  CD2       -8.8660   -0.2920   22.8880 C.ar  205  TRP205      0.0152
    137  NE1       -6.9260    0.7510   23.3120 N.ar  205  TRP205     -0.2442
    138  CE2       -7.6510    0.1250   22.3230 C.ar  205  TRP205      0.0810
    139  CE3       -9.7980   -0.9590   22.0410 C.ar  205  TRP205      0.0012
    140  CZ2       -7.3010   -0.1670   20.9810 C.ar  205  TRP205      0.0191
    141  CZ3       -9.4660   -1.2090   20.7690 C.ar  205  TRP205      0.0001
    142  CH2       -8.2520   -0.7920   20.2040 C.ar  205  TRP205      0.0015
@<TRIPOS>BOND
     1     5     2    1
     2     5     6    1
     3    14    11    1
     4    14    15    1
     5    11    10    1
     6    11    12    1
     7     2     3    1
     8     2     1    1
     9     6     7    1
    10    12    13    2
    11     3     4    2
    12     8     7    2
    13     7     9   am
    14    15    16   ar
    15    15    17   ar
    16    16    18   ar
    17    20    21    1
    18    22    21    1
    19    22    23    2
    20    21    24    1
    21    17    19   ar
    22    18    19   ar
    23    33    32    2
    24    54    52   ar
    25    54    56   ar
    26    51    52    1
    27    51    48    1
    28    24    25    1
    29    26    28   ar
    30    26    25   ar
    31    28    29   ar
    32    25    27   ar
    33    52    53   ar
    34    56    57   ar
    35   106   104    1
    36    27    29   ar
    37   110   109    2
    38   105   104    1
    39   104   101    1
    40    47    48    1
    41    30    31    1
    42    43    42    2
    43    53    55   ar
    44    32    31    1
    45    57    55   ar
    46    46    44    1
    47    58    59    1
    48    58    49   am
    49    44    45    1
    50    44    41    1
    51    40    41    1
    52    48    49    1
    53    59    60    1
    54   113   112    1
    55   113   107    1
    56   111   112    1
    57   111   108    1
    58   120   114    1
    59   120   119    1
    60   109   108    1
    61   109   114   am
    62    31    34    1
    63    49    50    2
    64    41    42    1
    65    34    35    1
    66   107   108    1
    67   107   102   am
    68   101   102    1
    69   101   100    1
    70   114   115    1
    71    36    35   ar
    72    36    38   ar
    73   102   103    2
    74   119   118    1
    75    35    37   ar
    76    60    61    2
    77   118   115    1
    78   100    95   am
    79    38    39   ar
    80   115   116    1
    81    37    39   ar
    82    96    95    2
    83    68    66    1
    84    98    97    1
    85    67    66    1
    86    95    94    1
    87    92    90    1
    88    91    90    1
    89    76    75    2
    90    83    82    1
    91    66    63    1
    92   116   117    2
    93    89    90    1
    94    89    86    1
    95    94    97    1
    96    94    93    1
    97    97    99    1
    98   127   126    1
    99    93    87   am
   100    84    82    1
   101    62    63    1
   102    75    77   am
   103    75    74    1
   104    82    79    1
   105    87    86    1
   106    87    88    2
   107    86    85    1
   108    63    64    1
   109   126   128    1
   110   126   125    1
   111   142   141   ar
   112   142   140   ar
   113    79    80    1
   114    79    78    1
   115    80    81    2
   116   141   139   ar
   117    74    73    1
   118    64    65    2
   119    64    69   am
   120   140   138   ar
   121   121   122    1
   122   125   122    1
   123    69    70    1
   124    73    70    1
   125   122   123    1
   126   139   136   ar
   127   138   136   ar
   128   138   137   ar
   129    70    71    1
   130   124   123    2
   131   136   134   ar
   132   137   135   ar
   133    71    72    2
   134   134   135   ar
   135   134   133    1
   136   130   133    1
   137   130   131    1
   138   130   129    1
   139   131   132    2
