@<TRIPOS>MOLECULE
tmp/1cowE00.pdb
 161 153 0 0 0
SMALL
GASTEIGER

@<TRIPOS>ATOM
      1  N         95.5980   98.9630   60.3680 N.3   328  SER328     -0.1217
      2  CA        94.5760   97.9060   60.5060 C.3   328  SER328      0.1889
      3  C         93.7030   97.5830   59.3080 C.2   328  SER328      0.2288
      4  O         93.0040   98.4480   58.7950 O.2   328  SER328     -0.2866
      5  CB        93.6080   98.2560   61.6410 C.3   328  SER328      0.2089
      6  OG        92.4100   97.4930   61.5430 O.3   328  SER328     -0.2183
      7  N         91.0570   95.8710   59.2190 N.3   330  ALA330     -0.1231
      8  CA        89.6760   96.0210   59.5640 C.3   330  ALA330      0.1694
      9  C         89.2020   97.4250   59.2900 C.2   330  ALA330      0.2591
     10  O         88.1340   97.6420   58.7320 O.2   330  ALA330     -0.2718
     11  CB        89.5090   95.6780   61.0330 C.3   330  ALA330      0.0304
     12  N         90.0110   98.3670   59.6910 N.am  331  ILE331     -0.1980
     13  CA        89.6320   99.7390   59.5000 C.3   331  ILE331      0.1595
     14  C         89.5540  100.0000   57.9950 C.2   331  ILE331      0.2287
     15  O         88.5490  100.5400   57.5090 O.2   331  ILE331     -0.2864
     16  CB        90.6240  100.6470   60.2200 C.3   331  ILE331      0.0276
     17  CG1       90.6610  100.4360   61.7010 C.3   331  ILE331      0.0022
     18  CG2       90.2990  102.0190   60.0800 C.3   331  ILE331      0.0022
     19  CD1       89.5060  100.9980   62.4310 C.3   331  ILE331      0.0001
     20  N         86.5830   99.2810   55.9640 N.3   334  LEU334     -0.1231
     21  CA        85.4200  100.1070   56.1570 C.3   334  LEU334      0.1693
     22  C         85.5840  101.3460   55.2480 C.2   334  LEU334      0.2593
     23  O         84.7480  102.2360   55.1780 O.2   334  LEU334     -0.2718
     24  CB        85.2140  100.3680   57.6390 C.3   334  LEU334      0.0284
     25  CG        84.8580   99.1230   58.5000 C.3   334  LEU334      0.0019
     26  CD1       84.5220   99.3420   59.9690 C.3   334  LEU334      0.0001
     27  CD2       83.7020   98.3730   57.8860 C.3   334  LEU334      0.0001
     28  N         86.7320  101.3890   54.5380 N.am  335  GLY335     -0.1942
     29  CA        87.0900  102.4770   53.6290 C.3   335  GLY335      0.2014
     30  C         88.0170  103.5040   54.2820 C.2   335  GLY335      0.2638
     31  O         88.7080  104.2840   53.5960 O.2   335  GLY335     -0.2714
     32  N         88.0230  103.4780   55.6160 N.am  336  ILE336     -0.1977
     33  CA        88.8310  104.3800   56.4550 C.3   336  ILE336      0.1596
     34  C         90.3090  104.3540   56.1570 C.2   336  ILE336      0.2287
     35  O         90.9240  103.2850   56.1390 O.2   336  ILE336     -0.2864
     36  CB        88.5970  104.2830   57.9560 C.3   336  ILE336      0.0276
     37  CG1       87.2670  104.8370   58.3550 C.3   336  ILE336      0.0022
     38  CG2       89.5990  105.1440   58.6690 C.3   336  ILE336      0.0022
     39  CD1       87.2690  105.4130   59.7740 C.3   336  ILE336      0.0001
     40  N         94.8670  102.5450   63.6370 N.3   341  ASP341     -0.1225
     41  CA        93.9450  102.1720   64.6990 C.3   341  ASP341      0.1790
     42  C         94.0450  103.1710   65.8130 C.2   341  ASP341      0.2440
     43  O         95.0610  103.3160   66.4560 O.2   341  ASP341     -0.2733
     44  CB        94.2110  100.7260   65.1770 C.3   341  ASP341      0.1423
     45  CG        93.2450  100.1890   66.2110 C.2   341  ASP341      0.3668
     46  OD1       92.4710  100.8970   66.8190 O.co2 341  ASP341     -0.2456
     47  OD2       93.3280   98.8920   66.4150 O.co2 341  ASP341     -0.2456
     48  N         92.9870  103.8880   66.0170 N.am  342  PRO342     -0.2718
     49  CA        92.9290  104.9210   67.0490 C.3   342  PRO342      0.1535
     50  C         93.0290  104.4180   68.5000 C.2   342  PRO342      0.2598
     51  O         93.2980  105.1800   69.4250 O.2   342  PRO342     -0.2715
     52  CB        91.5750  105.6210   66.8980 C.3   342  PRO342      0.0310
     53  CG        90.7980  104.6610   66.0680 C.3   342  PRO342      0.0237
     54  CD        91.7280  103.7870   65.2650 C.3   342  PRO342      0.0939
     55  N         92.7670  103.1380   68.7270 N.am  343  LEU343     -0.1978
     56  CA        92.7970  102.6050   70.0770 C.3   343  LEU343      0.1596
     57  C         94.0200  101.7340   70.3270 C.2   343  LEU343      0.2287
     58  O         94.4520  101.6000   71.4610 O.2   343  LEU343     -0.2864
     59  CB        91.4980  101.8430   70.4040 C.3   343  LEU343      0.0297
     60  CG        90.2370  102.6880   70.3330 C.3   343  LEU343      0.0022
     61  CD1       89.1380  101.7450   70.7280 C.3   343  LEU343      0.0001
     62  CD2       90.3000  103.7720   71.3930 C.3   343  LEU343      0.0001
     63  N         85.4010  107.0250   71.5970 N.3   370  LEU370     -0.1245
     64  CA        85.6380  105.9230   70.6710 C.3   370  LEU370      0.1561
     65  C         85.5260  104.5940   71.3990 C.2   370  LEU370      0.2260
     66  O         85.1610  103.5650   70.8510 O.2   370  LEU370     -0.2867
     67  CB        87.0260  106.0110   69.9940 C.3   370  LEU370      0.0270
     68  CG        87.1620  107.0200   68.8550 C.3   370  LEU370      0.0019
     69  CD1       88.5020  106.8390   68.1550 C.3   370  LEU370      0.0001
     70  CD2       86.0160  106.8870   67.8550 C.3   370  LEU370      0.0001
     71  N         81.4860  104.0680   72.2820 N.3   373  TYR373     -0.1227
     72  CA        80.7420  103.6580   71.1140 C.3   373  TYR373      0.1736
     73  C         80.9680  102.1480   70.9020 C.2   373  TYR373      0.2595
     74  O         80.0210  101.4240   70.5570 O.2   373  TYR373     -0.2718
     75  CB        81.1040  104.5340   69.8940 C.3   373  TYR373      0.0548
     76  CG        80.6570  104.0360   68.5300 C.ar  373  TYR373     -0.0200
     77  CD1       79.3640  103.5650   68.2720 C.ar  373  TYR373     -0.0009
     78  CD2       81.5210  104.1440   67.4410 C.ar  373  TYR373     -0.0009
     79  CE1       78.9650  103.0830   67.0310 C.ar  373  TYR373      0.0417
     80  CE2       81.1300  103.7290   66.1670 C.ar  373  TYR373      0.0417
     81  CZ        79.8550  103.1980   65.9670 C.ar  373  TYR373      0.1957
     82  OH        79.4890  102.7880   64.7180 O.3   373  TYR373     -0.2866
     83  N         82.1850  101.7050   71.0810 N.am  374  LYS374     -0.1980
     84  CA        82.5150  100.2990   70.8860 C.3   374  LYS374      0.1596
     85  C         81.6000   99.3730   71.7000 C.2   374  LYS374      0.2287
     86  O         81.1940   98.2870   71.2500 O.2   374  LYS374     -0.2864
     87  CB        83.9780  100.0500   71.1970 C.3   374  LYS374      0.0298
     88  CG        84.6420   99.0900   70.2310 C.3   374  LYS374      0.0038
     89  CD        86.0130   98.6550   70.7270 C.3   374  LYS374      0.0206
     90  CE        86.6250   97.5270   69.8870 C.3   374  LYS374      0.1093
     91  NZ        87.2460   96.4510   70.7010 N.3   374  LYS374     -0.1314
     92  N         78.1370   99.2270   70.2620 N.3   377  GLN377     -0.1245
     93  CA        78.2360   98.5360   68.9910 C.3   377  GLN377      0.1566
     94  C         77.5730   97.1550   69.0460 C.2   377  GLN377      0.2260
     95  O         76.9030   96.7300   68.0830 O.2   377  GLN377     -0.2867
     96  CB        79.7140   98.4240   68.6070 C.3   377  GLN377      0.0367
     97  CG        80.0240   98.8220   67.1560 C.3   377  GLN377      0.0905
     98  CD        81.3320   98.2000   66.6830 C.2   377  GLN377      0.2608
     99  OE1       81.8940   97.2880   67.3450 O.2   377  GLN377     -0.2717
    100  NE2       81.7760   98.6480   65.5240 N.am  377  GLN377     -0.0878
    101  N         80.7740  108.6620   65.6580 N.3   400  ARG400     -0.1245
    102  CA        80.6980  108.3470   64.2530 C.3   400  ARG400      0.1563
    103  C         81.1840  109.5240   63.4240 C.2   400  ARG400      0.2260
    104  O         81.6520  109.3270   62.3130 O.2   400  ARG400     -0.2867
    105  CB        79.3130  107.9850   63.7630 C.3   400  ARG400      0.0307
    106  CG        78.3790  107.1870   64.6570 C.3   400  ARG400      0.0489
    107  CD        77.4710  106.3400   63.7480 C.3   400  ARG400      0.2205
    108  NE        78.3760  105.5070   62.9650 N.pl3 400  ARG400     -0.0865
    109  CZ        78.3880  105.0990   61.7050 C.cat 400  ARG400      0.5346
    110  NH1       77.4480  105.4050   60.8180 N.pl3 400  ARG400      0.1354
    111  NH2       79.4370  104.3400   61.3400 N.pl3 400  ARG400      0.1354
    112  N         85.1440  109.3230   64.2600 N.3   403  GLN403     -0.1231
    113  CA        85.7880  108.2340   63.5440 C.3   403  GLN403      0.1698
    114  C         86.1770  108.6640   62.1360 C.2   403  GLN403      0.2592
    115  O         87.3030  108.4560   61.7040 O.2   403  GLN403     -0.2718
    116  CB        84.8230  107.0630   63.4880 C.3   403  GLN403      0.0381
    117  CG        85.3910  105.7780   63.8450 C.3   403  GLN403      0.0905
    118  CD        84.2170  104.8460   64.1490 C.2   403  GLN403      0.2608
    119  OE1       83.6770  104.1150   63.3050 O.2   403  GLN403     -0.2717
    120  NE2       84.2210  104.4360   65.4340 N.am  403  GLN403     -0.0878
    121  N         85.2550  109.3570   61.4850 N.am  404  ARG404     -0.1980
    122  CA        85.4530  109.8510   60.1430 C.3   404  ARG404      0.1597
    123  C         86.4130  110.9920   60.0900 C.2   404  ARG404      0.2287
    124  O         87.2830  111.0410   59.2270 O.2   404  ARG404     -0.2864
    125  CB        84.1540  110.2660   59.4840 C.3   404  ARG404      0.0334
    126  CG        83.0210  109.3540   59.8970 C.3   404  ARG404      0.0492
    127  CD        82.1450  108.7640   58.8070 C.3   404  ARG404      0.2205
    128  NE        81.5440  107.5700   59.3980 N.pl3 404  ARG404     -0.0865
    129  CZ        80.6630  106.7760   58.8700 C.cat 404  ARG404      0.5346
    130  NH1       80.1990  106.9600   57.6430 N.pl3 404  ARG404      0.1354
    131  NH2       80.2290  105.7240   59.5700 N.pl3 404  ARG404      0.1354
    132  N         77.3340  113.1320   59.0330 N.3   446  GLU446     -0.1231
    133  CA        78.4710  112.2560   58.7790 C.3   446  GLU446      0.1699
    134  C         79.3270  112.5920   57.5790 C.2   446  GLU446      0.2592
    135  O         80.4460  113.0600   57.6990 O.2   446  GLU446     -0.2718
    136  CB        78.0030  110.8220   58.5880 C.3   446  GLU446      0.0402
    137  CG        77.4490  110.1580   59.8580 C.3   446  GLU446      0.1161
    138  CD        77.0850  108.7230   59.5640 C.2   446  GLU446      0.3649
    139  OE1       77.2230  108.2250   58.4430 O.co2 446  GLU446     -0.2457
    140  OE2       76.6050  108.0630   60.5810 O.co2 446  GLU446     -0.2457
    141  N         78.8100  112.3160   56.3940 N.am  447  GLN447     -0.1979
    142  CA        79.5470  112.5680   55.1630 C.3   447  GLN447      0.1601
    143  C         80.1040  113.9790   55.0150 C.2   447  GLN447      0.2287
    144  O         80.7180  114.3430   54.0060 O.2   447  GLN447     -0.2864
    145  CB        78.7710  112.1420   53.8970 C.3   447  GLN447      0.0394
    146  CG        79.2970  110.8480   53.2360 C.3   447  GLN447      0.0908
    147  CD        80.1060  111.0170   51.9360 C.2   447  GLN447      0.2608
    148  OE1       79.6160  110.6650   50.8500 O.2   447  GLN447     -0.2717
    149  NE2       81.2990  111.6320   51.9750 N.am  447  GLN447     -0.0878
    150  N         83.9320  112.9720   56.2790 N.3   450  TYR450     -0.1241
    151  CA        84.6900  111.9500   55.5890 C.3   450  TYR450      0.1605
    152  C         85.7270  112.5530   54.6520 C.2   450  TYR450      0.2264
    153  O         85.4250  113.3750   53.8030 O.2   450  TYR450     -0.2867
    154  CB        83.7580  110.9400   54.8640 C.3   450  TYR450      0.0534
    155  CG        84.4540  109.7590   54.1940 C.ar  450  TYR450     -0.0201
    156  CD1       85.1150  108.7920   54.9530 C.ar  450  TYR450     -0.0009
    157  CD2       84.4130  109.5830   52.8090 C.ar  450  TYR450     -0.0009
    158  CE1       85.7530  107.6990   54.3600 C.ar  450  TYR450      0.0417
    159  CE2       85.0460  108.4970   52.1950 C.ar  450  TYR450      0.0417
    160  CZ        85.7230  107.5560   52.9730 C.ar  450  TYR450      0.1957
    161  OH        86.3540  106.4840   52.3790 O.3   450  TYR450     -0.2866
@<TRIPOS>BOND
     1   148   147    2
     2   147   149   am
     3   147   146    1
     4   159   157   ar
     5   159   160   ar
     6   161   160    1
     7   157   155   ar
     8   160   158   ar
     9   146   145    1
    10    31    30    2
    11    29    30    1
    12    29    28    1
    13   153   152    2
    14   145   142    1
    15   144   143    2
    16   155   154    1
    17   155   156   ar
    18    30    32   am
    19   158   156   ar
    20    28    22   am
    21   152   151    1
    22   154   151    1
    23   143   142    1
    24   142   141    1
    25    23    22    2
    26    22    21    1
    27   151   150    1
    28    32    33    1
    29    20    21    1
    30    35    34    2
    31    21    24    1
    32    34    33    1
    33   141   134   am
    34    33    36    1
    35    15    14    2
    36   134   135    2
    37   134   133    1
    38    24    25    1
    39   130   129    1
    40    27    25    1
    41    36    37    1
    42    36    38    1
    43    14    13    1
    44    37    39    1
    45   139   138   ar
    46    25    26    1
    47   136   133    1
    48   136   137    1
    49    10     9    2
    50   133   132    1
    51     4     3    2
    52   127   128    1
    53   127   126    1
    54   129   128    2
    55   129   131    1
    56     7     8    1
    57   124   123    2
    58     9     8    1
    59     9    12   am
    60     3     2    1
    61   125   126    1
    62   125   122    1
    63    13    12    1
    64    13    16    1
    65   138   137    1
    66   138   140   ar
    67     8    11    1
    68    18    16    1
    69   123   122    1
    70   122   121    1
    71    16    17    1
    72     1     2    1
    73     2     5    1
    74   110   109    1
    75   111   109    1
    76   121   114   am
    77     6     5    1
    78    17    19    1
    79   115   114    2
    80   109   108    2
    81   114   113    1
    82   104   103    2
    83   108   107    1
    84   119   118    2
    85   103   102    1
    86   116   113    1
    87   116   117    1
    88   113   112    1
    89    40    41    1
    90   107   106    1
    91   105   102    1
    92   105   106    1
    93   117   118    1
    94   118   120   am
    95   102   101    1
    96    41    44    1
    97    41    42    1
    98    82    81    1
    99    44    45    1
   100    54    48    1
   101    54    53    1
   102   100    98   am
   103    42    48   am
   104    42    43    2
   105    81    80   ar
   106    81    79   ar
   107    48    49    1
   108    53    52    1
   109    80    78   ar
   110    45    47   ar
   111    45    46   ar
   112    98    97    1
   113    98    99    2
   114    52    49    1
   115    79    77   ar
   116    49    50    1
   117    97    96    1
   118    78    76   ar
   119    70    68    1
   120    95    94    2
   121    69    68    1
   122    77    76   ar
   123    50    55   am
   124    50    51    2
   125    76    75    1
   126    96    93    1
   127    55    56    1
   128    68    67    1
   129    93    94    1
   130    93    92    1
   131    90    91    1
   132    90    89    1
   133    75    72    1
   134    67    64    1
   135    56    57    1
   136    56    59    1
   137    88    89    1
   138    88    87    1
   139    57    58    2
   140    60    59    1
   141    60    61    1
   142    60    62    1
   143    74    73    2
   144    64    65    1
   145    64    63    1
   146    66    65    2
   147    84    83    1
   148    84    87    1
   149    84    85    1
   150    73    83   am
   151    73    72    1
   152    72    71    1
   153    86    85    2
