@<TRIPOS>MOLECULE
tmp/1coyA00.pdb
 181 173 0 0 0
SMALL
GASTEIGER

@<TRIPOS>ATOM
      1  N          1.5350   15.8940   15.6680 N.3    56  MET56      -0.1245
      2  CA         1.0370   17.2550   15.6120 C.3    56  MET56       0.1570
      3  C          2.0340   18.2730   15.0790 C.2    56  MET56       0.2261
      4  O          1.6230   19.3290   14.6130 O.2    56  MET56      -0.2867
      5  CB         0.5380   17.6910   16.9860 C.3    56  MET56       0.0387
      6  CG        -0.5110   16.7680   17.5670 C.3    56  MET56       0.0595
      7  SD        -1.2250   17.4650   19.0470 S.3    56  MET56      -0.1393
      8  CE         0.1630   17.2960   20.1970 C.3    56  MET56       0.0692
      9  N         -6.3360   23.2240   14.2030 N.3    72  GLN72      -0.1231
     10  CA        -6.1050   22.9690   15.6170 C.3    72  GLN72       0.1683
     11  C         -6.5420   24.2400   16.3450 C.2    72  GLN72       0.2434
     12  O         -6.4980   25.3310   15.7730 O.2    72  GLN72      -0.2733
     13  CB        -4.6250   22.6560   15.8750 C.3    72  GLN72       0.0380
     14  CG        -4.3360   22.2970   17.3180 C.3    72  GLN72       0.0905
     15  CD        -2.8780   21.9600   17.5630 C.2    72  GLN72       0.2608
     16  OE1       -2.0050   22.3230   16.7750 O.2    72  GLN72      -0.2717
     17  NE2       -2.6090   21.2640   18.6600 N.am   72  GLN72      -0.0878
     18  N         -7.0530   24.1050   17.5780 N.am   73  PRO73      -0.2718
     19  CA        -7.5070   25.2680   18.3530 C.3    73  PRO73       0.1535
     20  C         -6.4040   26.2980   18.5940 C.2    73  PRO73       0.2598
     21  O         -6.6530   27.5130   18.5610 O.2    73  PRO73      -0.2715
     22  CB        -8.0070   24.6400   19.6450 C.3    73  PRO73       0.0310
     23  CG        -8.4460   23.2870   19.2060 C.3    73  PRO73       0.0237
     24  CD        -7.3600   22.8510   18.2810 C.3    73  PRO73       0.0939
     25  N         -5.1820   25.8210   18.8310 N.am   74  VAL74      -0.1978
     26  CA        -4.0440   26.7280   18.9640 C.3    74  VAL74       0.1596
     27  C         -3.3540   26.8590   17.6070 C.2    74  VAL74       0.2287
     28  O         -2.7970   25.8920   17.0870 O.2    74  VAL74      -0.2864
     29  CB        -3.0370   26.2360   20.0190 C.3    74  VAL74       0.0276
     30  CG1       -1.9130   27.2510   20.1740 C.3    74  VAL74       0.0022
     31  CG2       -3.7480   26.0190   21.3390 C.3    74  VAL74       0.0022
     32  N          4.5530   26.6820   16.6690 N.3    80  PHE80      -0.1241
     33  CA         3.6540   25.5650   16.8870 C.3    80  PHE80       0.1605
     34  C          2.2390   25.7920   16.3470 C.2    80  PHE80       0.2264
     35  O          1.7250   26.9160   16.3660 O.2    80  PHE80      -0.2867
     36  CB         3.5770   25.2460   18.3750 C.3    80  PHE80       0.0534
     37  CG         2.6450   24.1300   18.6920 C.ar   80  PHE80      -0.0203
     38  CD1        3.0710   22.8140   18.5880 C.ar   80  PHE80      -0.0042
     39  CD2        1.3260   24.3870   19.0360 C.ar   80  PHE80      -0.0042
     40  CE1        2.2010   21.7660   18.8270 C.ar   80  PHE80      -0.0003
     41  CE2        0.4520   23.3500   19.2740 C.ar   80  PHE80      -0.0003
     42  CZ         0.8900   22.0320   19.1660 C.ar   80  PHE80      -0.0000
     43  N         -8.6740   11.3550   21.1290 N.3   116  ASN116     -0.1225
     44  CA        -8.8520   12.0420   22.3990 C.3   116  ASN116      0.1785
     45  C         -7.6600   11.9700   23.3230 C.2   116  ASN116      0.2597
     46  O         -6.6740   11.2970   23.0230 O.2   116  ASN116     -0.2718
     47  CB       -10.1910   11.6840   23.0940 C.3   116  ASN116      0.1169
     48  CG       -10.2500   10.2750   23.6780 C.2   116  ASN116      0.2627
     49  OD1       -9.2680    9.7370   24.1510 O.2   116  ASN116     -0.2716
     50  ND2      -11.4570    9.7060   23.7070 N.am  116  ASN116     -0.0877
     51  N         -7.7190   12.7290   24.4120 N.am  117  GLY117     -0.1957
     52  CA        -6.5960   12.8050   25.3420 C.3   117  GLY117      0.1869
     53  C         -6.5390   11.6950   26.3720 C.2   117  GLY117      0.2309
     54  O         -5.6800   11.7070   27.2600 O.2   117  GLY117     -0.2863
     55  N         -8.4240   11.0120   28.9000 N.3   119  MET119     -0.1245
     56  CA        -8.8080   11.2700   30.2960 C.3   119  MET119      0.1570
     57  C        -10.1180   10.5900   30.6460 C.2   119  MET119      0.2261
     58  O        -11.1610   10.8980   30.0710 O.2   119  MET119     -0.2867
     59  CB        -8.8670   12.7560   30.5520 C.3   119  MET119      0.0387
     60  CG        -7.5390   13.4320   30.2000 C.3   119  MET119      0.0595
     61  SD        -7.6470   15.2080   30.4690 S.3   119  MET119     -0.1393
     62  CE        -8.1740   15.1890   32.2190 C.3   119  MET119      0.0692
     63  N         -1.1260   13.1730   19.6780 N.3   214  VAL214     -0.1231
     64  CA        -2.3730   12.8970   20.4030 C.3   214  VAL214      0.1692
     65  C         -3.6380   13.1030   19.5730 C.2   214  VAL214      0.2591
     66  O         -4.3290   12.1430   19.2600 O.2   214  VAL214     -0.2718
     67  CB        -2.4800   13.6060   21.8170 C.3   214  VAL214      0.0266
     68  CG1       -2.3990   15.1040   21.6910 C.3   214  VAL214      0.0020
     69  CG2       -3.7760   13.1750   22.5480 C.3   214  VAL214      0.0020
     70  N         -3.8800   14.3230   19.1110 N.am  215  ILE215     -0.1980
     71  CA        -5.1520   14.6030   18.4470 C.3   215  ILE215      0.1595
     72  C         -5.2940   14.0870   17.0210 C.2   215  ILE215      0.2287
     73  O         -6.4000   14.1050   16.4850 O.2   215  ILE215     -0.2864
     74  CB        -5.5400   16.0930   18.4670 C.3   215  ILE215      0.0276
     75  CG1       -4.5170   16.9000   17.6660 C.3   215  ILE215      0.0022
     76  CG2       -5.7070   16.5860   19.8990 C.3   215  ILE215      0.0022
     77  CD1       -4.8770   18.3460   17.5160 C.3   215  ILE215      0.0001
     78  N        -11.5720   27.0890   26.5370 N.3   322  MET322     -0.1245
     79  CA       -10.1200   27.0130   26.7120 C.3   322  MET322      0.1570
     80  C         -9.5540   28.3980   27.0000 C.2   322  MET322      0.2261
     81  O        -10.1410   29.4130   26.5990 O.2   322  MET322     -0.2867
     82  CB        -9.4280   26.4160   25.4850 C.3   322  MET322      0.0387
     83  CG        -9.6280   24.9110   25.3360 C.3   322  MET322      0.0595
     84  SD        -8.3380   24.1350   24.3100 S.3   322  MET322     -0.1393
     85  CE        -7.0340   23.8940   25.5360 C.3   322  MET322      0.0692
     86  N          1.9500   14.9610   25.9300 N.3   339  THR339     -0.1218
     87  CA         0.7270   15.4090   25.2730 C.3   339  THR339      0.1862
     88  C         -0.5220   14.9420   26.0320 C.2   339  THR339      0.2287
     89  O         -1.6430   15.3250   25.6920 O.2   339  THR339     -0.2866
     90  CB         0.6690   14.8710   23.8150 C.3   339  THR339      0.1770
     91  OG1        0.7060   13.4370   23.8500 O.3   339  THR339     -0.2211
     92  CG2        1.8700   15.3890   23.0010 C.3   339  THR339      0.0375
     93  N         -2.7150   15.0020   29.2620 N.3   341  PRO341     -0.2116
     94  CA        -2.9500   15.7260   30.5210 C.3   341  PRO341      0.1372
     95  C         -3.2090   14.7490   31.6880 C.2   341  PRO341      0.2244
     96  O         -3.8440   13.7090   31.4890 O.2   341  PRO341     -0.2868
     97  CB        -4.1940   16.5770   30.2250 C.3   341  PRO341      0.0268
     98  CG        -4.3520   16.5390   28.6980 C.3   341  PRO341      0.0207
     99  CD        -3.8320   15.1780   28.3160 C.3   341  PRO341      0.0892
    100  N         -8.8320   20.9710   33.1840 N.3   358  GLU358     -0.1245
    101  CA        -7.6080   20.1980   33.0760 C.3   358  GLU358      0.1567
    102  C         -6.4620   21.1200   32.6570 C.2   358  GLU358      0.2260
    103  O         -6.6570   22.0980   31.9110 O.2   358  GLU358     -0.2867
    104  CB        -7.7710   19.0550   32.0860 C.3   358  GLU358      0.0388
    105  CG        -7.9870   19.5070   30.6710 C.3   358  GLU358      0.1160
    106  CD        -8.5300   18.4060   29.7680 C.2   358  GLU358      0.3649
    107  OE1       -9.5890   17.8180   30.1140 O.co2 358  GLU358     -0.2457
    108  OE2       -7.8860   18.1430   28.7210 O.co2 358  GLU358     -0.2457
    109  N         -3.6790   21.5840   30.4550 N.3   360  ALA360     -0.1231
    110  CA        -3.3600   21.0280   29.1460 C.3   360  ALA360      0.1679
    111  C         -1.9620   21.3760   28.6940 C.2   360  ALA360      0.2434
    112  O         -1.4430   22.4440   29.0110 O.2   360  ALA360     -0.2733
    113  CB        -4.3550   21.5230   28.1120 C.3   360  ALA360      0.0304
    114  N         -1.3110   20.4610   27.9410 N.am  361  PRO361     -0.2718
    115  CA         0.0340   20.7130   27.4210 C.3   361  PRO361      0.1535
    116  C         -0.0380   21.5810   26.1530 C.2   361  PRO361      0.2598
    117  O         -1.0650   21.6350   25.4760 O.2   361  PRO361     -0.2715
    118  CB         0.5360   19.3110   27.0740 C.3   361  PRO361      0.0310
    119  CG        -0.7040   18.5750   26.6940 C.3   361  PRO361      0.0237
    120  CD        -1.7380   19.0620   27.6860 C.3   361  PRO361      0.0939
    121  N          1.0410   22.2950   25.8800 N.am  362  LEU362     -0.1964
    122  CA         1.2080   23.0600   24.6520 C.3   362  LEU362      0.1713
    123  C          2.6160   22.6410   24.2520 C.2   362  LEU362      0.2458
    124  O          3.6080   23.3310   24.4950 O.2   362  LEU362     -0.2730
    125  CB         1.1030   24.5570   24.9490 C.3   362  LEU362      0.0310
    126  CG         1.2590   25.5920   23.8280 C.3   362  LEU362      0.0022
    127  CD1        0.4430   25.2170   22.6280 C.3   362  LEU362      0.0001
    128  CD2        0.8200   26.9370   24.3790 C.3   362  LEU362      0.0001
    129  N          2.7280   21.4460   23.6270 N.am  363  PRO363     -0.2727
    130  CA         4.0260   20.8870   23.2650 C.3   363  PRO363      0.1402
    131  C          4.7450   21.5130   22.0970 C.2   363  PRO363      0.2269
    132  O          4.9120   20.8790   21.0470 O.2   363  PRO363     -0.2865
    133  CB         3.7080   19.3980   23.0520 C.3   363  PRO363      0.0296
    134  CG         2.3260   19.4520   22.4600 C.3   363  PRO363      0.0237
    135  CD         1.6170   20.5930   23.1550 C.3   363  PRO363      0.0939
    136  N         -1.8740   26.3690   29.9450 N.3   372  LEU372     -0.1245
    137  CA        -3.0620   26.2250   29.1130 C.3   372  LEU372      0.1561
    138  C         -4.0970   25.3760   29.8550 C.2   372  LEU372      0.2260
    139  O         -3.7430   24.3980   30.5060 O.2   372  LEU372     -0.2867
    140  CB        -2.6790   25.5430   27.7850 C.3   372  LEU372      0.0270
    141  CG        -3.7450   25.4740   26.6830 C.3   372  LEU372      0.0019
    142  CD1       -4.1180   26.8780   26.2400 C.3   372  LEU372      0.0001
    143  CD2       -3.2340   24.6510   25.4910 C.3   372  LEU372      0.0001
    144  N         -8.2220   23.5210   29.7010 N.3   374  LEU374     -0.1245
    145  CA        -9.5150   23.2250   29.0950 C.3   374  LEU374      0.1561
    146  C        -10.4670   23.1050   30.2730 C.2   374  LEU374      0.2260
    147  O        -10.2760   22.2650   31.1530 O.2   374  LEU374     -0.2867
    148  CB        -9.4960   21.9360   28.2730 C.3   374  LEU374      0.0270
    149  CG       -10.8780   21.4520   27.7790 C.3   374  LEU374      0.0019
    150  CD1      -11.5030   22.4400   26.8090 C.3   374  LEU374      0.0001
    151  CD2      -10.7190   20.1010   27.1000 C.3   374  LEU374      0.0001
    152  N        -14.8910   19.7770   22.2310 N.3   441  TYR441     -0.1227
    153  CA       -14.4140   18.4320   21.9890 C.3   441  TYR441      0.1736
    154  C        -15.4700   17.4640   22.4550 C.2   441  TYR441      0.2595
    155  O        -15.3600   16.2690   22.2160 O.2   441  TYR441     -0.2718
    156  CB       -13.1570   18.1590   22.8190 C.3   441  TYR441      0.0548
    157  CG       -11.9850   18.9440   22.3400 C.ar  441  TYR441     -0.0200
    158  CD1      -11.4530   18.6810   21.0980 C.ar  441  TYR441     -0.0009
    159  CD2      -11.4230   19.9700   23.1040 C.ar  441  TYR441     -0.0009
    160  CE1      -10.3940   19.3840   20.6060 C.ar  441  TYR441      0.0417
    161  CE2      -10.3370   20.7040   22.6120 C.ar  441  TYR441      0.0417
    162  CZ        -9.8360   20.3830   21.3500 C.ar  441  TYR441      0.1957
    163  OH        -8.7490   21.0090   20.8050 O.3   441  TYR441     -0.2866
    164  N        -16.4530   17.9920   23.1820 N.am  442  HIS442     -0.1975
    165  CA       -17.3750   17.1610   23.9410 C.3   442  HIS442      0.1656
    166  C        -18.8480   17.4060   23.6260 C.2   442  HIS442      0.2291
    167  O        -19.5970   17.8590   24.4980 O.2   442  HIS442     -0.2864
    168  CB       -17.2030   17.3890   25.4660 C.3   442  HIS442      0.0771
    169  CG       -15.8050   17.1250   25.9880 C.ar  442  HIS442      0.0820
    170  ND1      -15.3570   17.6770   27.1750 N.ar  442  HIS442     -0.2267
    171  CD2      -14.7780   16.3990   25.4970 C.ar  442  HIS442      0.1154
    172  CE1      -14.1050   17.3090   27.3810 C.ar  442  HIS442      0.1986
    173  NE2      -13.7230   16.5380   26.3830 N.ar  442  HIS442     -0.2212
    174  N        -14.8450   14.9510   31.7910 N.3   480  ASN480     -0.1240
    175  CA       -14.6070   14.3670   30.4630 C.3   480  ASN480      0.1653
    176  C        -15.6330   13.2760   30.3210 C.2   480  ASN480      0.2266
    177  O        -15.7590   12.3900   31.1770 O.2   480  ASN480     -0.2867
    178  CB       -13.1710   13.8460   30.3610 C.3   480  ASN480      0.1155
    179  CG       -12.1480   14.9490   30.4320 C.2   480  ASN480      0.2627
    180  OD1      -11.7550   15.5200   29.4150 O.2   480  ASN480     -0.2716
    181  ND2      -11.7620   15.3070   31.6390 N.am  480  ASN480     -0.0877
@<TRIPOS>BOND
     1     9    10    1
     2     4     3    2
     3     3     2    1
     4     2     1    1
     5     2     5    1
     6    10    13    1
     7    10    11    1
     8    12    11    2
     9    13    14    1
    10    11    18   am
    11    34    35    2
    12    34    33    1
    13    73    72    2
    14    32    33    1
    15    16    15    2
    16    33    36    1
    17     5     6    1
    18    72    71    1
    19    28    27    2
    20    14    15    1
    21    77    75    1
    22    15    17   am
    23     6     7    1
    24    18    24    1
    25    18    19    1
    26    27    26    1
    27    75    74    1
    28    24    23    1
    29    19    20    1
    30    19    22    1
    31    36    37    1
    32    71    74    1
    33    71    70    1
    34    74    76    1
    35    21    20    2
    36    38    37   ar
    37    38    40   ar
    38    20    25   am
    39    37    39   ar
    40    40    42   ar
    41    25    26    1
    42    26    29    1
    43    39    41   ar
    44     7     8    1
    45    70    65   am
    46    42    41   ar
    47    23    22    1
    48    66    65    2
    49    65    64    1
    50    63    64    1
    51    29    30    1
    52    29    31    1
    53    64    67    1
    54   160   158   ar
    55   160   162   ar
    56   163   162    1
    57   132   131    2
    58   158   157   ar
    59    43    44    1
    60   162   161   ar
    61    68    67    1
    62    67    69    1
    63   153   152    1
    64   153   154    1
    65   153   156    1
    66   131   130    1
    67   155   154    2
    68   157   156    1
    69   157   159   ar
    70    44    47    1
    71    44    45    1
    72   154   164   am
    73   134   133    1
    74   134   135    1
    75   161   159   ar
    76   127   126    1
    77    92    90    1
    78    46    45    2
    79   133   130    1
    80    47    48    1
    81   135   129    1
    82   164   165    1
    83   130   129    1
    84    45    51   am
    85   166   165    1
    86   166   167    2
    87   129   123   am
    88    48    50   am
    89    48    49    2
    90    90    91    1
    91    90    87    1
    92   126   128    1
    93   126   125    1
    94   165   168    1
    95   123   124    2
    96   123   122    1
    97    84    83    1
    98    84    85    1
    99    51    52    1
   100   122   125    1
   101   122   121    1
   102    87    86    1
   103    87    88    1
   104    83    82    1
   105    52    53    1
   106   168   169    1
   107   117   116    2
   108    82    79    1
   109   143   141    1
   110   171   169   ar
   111   171   173   ar
   112    89    88    2
   113   121   116   am
   114   169   170   ar
   115   116   115    1
   116   142   141    1
   117    53    54    2
   118   173   172   ar
   119    78    79    1
   120    81    80    2
   121   141   140    1
   122   119   118    1
   123   119   120    1
   124    79    80    1
   125   150   149    1
   126   118   115    1
   127   151   149    1
   128   170   172   ar
   129   115   114    1
   130   120   114    1
   131   149   148    1
   132   140   137    1
   133   114   111   am
   134   113   110    1
   135   148   145    1
   136    99    98    1
   137    99    93    1
   138   111   112    2
   139   111   110    1
   140    98    97    1
   141   108   106   ar
   142    55    56    1
   143   145   144    1
   144   145   146    1
   145   137   138    1
   146   137   136    1
   147   110   109    1
   148    93    94    1
   149   180   179    2
   150   106   107   ar
   151   106   105    1
   152   138   139    2
   153    58    57    2
   154    60    61    1
   155    60    59    1
   156    97    94    1
   157   146   147    2
   158    56    59    1
   159    56    57    1
   160   176   175    1
   161   176   177    2
   162   178   179    1
   163   178   175    1
   164   179   181   am
   165   175   174    1
   166    61    62    1
   167    94    95    1
   168   105   104    1
   169    96    95    2
   170   103   102    2
   171   104   101    1
   172   102   101    1
   173   101   100    1
