@<TRIPOS>MOLECULE
tmp/1cozB00.pdb
 196 193 0 0 0
SMALL
GASTEIGER

@<TRIPOS>ATOM
      1  N         28.6010   21.0250  -44.0170 N.3     6  THR6       -0.1203
      2  CA        27.2970   20.3710  -43.9290 C.3     6  THR6        0.1994
      3  C         26.2530   21.4720  -43.6480 C.2     6  THR6        0.2618
      4  O         26.5930   22.5660  -43.1860 O.2     6  THR6       -0.2717
      5  CB        27.2880   19.2170  -42.8790 C.3     6  THR6        0.1784
      6  OG1       26.1370   18.3970  -43.0840 O.3     6  THR6       -0.2211
      7  CG2       27.2780   19.7310  -41.4440 C.3     6  THR6        0.0376
      8  N         25.0160   21.2490  -44.0850 N.am    7  TYR7       -0.1961
      9  CA        23.9590   22.2360  -43.9210 C.3     7  TYR7        0.1771
     10  C         22.7770   21.6770  -43.1470 C.2     7  TYR7        0.2620
     11  O         22.4590   20.5040  -43.2630 O.2     7  TYR7       -0.2715
     12  CB        23.4530   22.6920  -45.2880 C.3     7  TYR7        0.0574
     13  CG        24.4750   23.3990  -46.1300 C.ar    7  TYR7       -0.0198
     14  CD1       25.5270   22.7000  -46.7410 C.ar    7  TYR7       -0.0009
     15  CD2       24.3960   24.7660  -46.3220 C.ar    7  TYR7       -0.0009
     16  CE1       26.4690   23.3700  -47.5180 C.ar    7  TYR7        0.0417
     17  CE2       25.3290   25.4410  -47.0930 C.ar    7  TYR7        0.0417
     18  CZ        26.3580   24.7390  -47.6840 C.ar    7  TYR7        0.1957
     19  OH        27.2670   25.4370  -48.4280 O.3     7  TYR7       -0.2866
     20  N         22.0900   22.5450  -42.4160 N.am    8  GLY8       -0.1940
     21  CA        20.9460   22.1080  -41.6450 C.3     8  GLY8        0.2014
     22  C         20.4040   23.2190  -40.7740 C.2     8  GLY8        0.2640
     23  O         20.8920   24.3430  -40.8050 O.2     8  GLY8       -0.2714
     24  N         19.3990   22.8940  -39.9680 N.am    9  THR9       -0.1936
     25  CA        18.7860   23.8790  -39.0850 C.3     9  THR9        0.2028
     26  C         19.2910   23.7270  -37.6630 C.2     9  THR9        0.2642
     27  O         19.5970   24.7270  -37.0210 O.2     9  THR9       -0.2714
     28  CB        17.2620   23.7630  -39.1250 C.3     9  THR9        0.1808
     29  OG1       16.8240   23.9190  -40.4830 O.3     9  THR9       -0.2208
     30  CG2       16.6060   24.8400  -38.2580 C.3     9  THR9        0.0379
     31  N         19.4310   22.4790  -37.2140 N.am   10  PHE10      -0.1959
     32  CA        19.9230   22.1640  -35.8740 C.3    10  PHE10       0.1771
     33  C         19.1750   22.9740  -34.8200 C.2    10  PHE10       0.2619
     34  O         19.7850   23.6880  -34.0220 O.2    10  PHE10      -0.2715
     35  CB        21.4470   22.4300  -35.7920 C.3    10  PHE10       0.0574
     36  CG        22.2630   21.5830  -36.7460 C.ar   10  PHE10      -0.0200
     37  CD1       22.6110   20.2710  -36.4230 C.ar   10  PHE10      -0.0042
     38  CD2       22.6370   22.0790  -37.9850 C.ar   10  PHE10      -0.0042
     39  CE1       23.3110   19.4690  -37.3230 C.ar   10  PHE10      -0.0003
     40  CE2       23.3330   21.2910  -38.8850 C.ar   10  PHE10      -0.0003
     41  CZ        23.6690   19.9890  -38.5590 C.ar   10  PHE10      -0.0000
     42  N         17.8520   22.8530  -34.8290 N.am   11  ASP11      -0.1971
     43  CA        17.0080   23.6000  -33.9050 C.3    11  ASP11       0.1709
     44  C         16.9380   23.0790  -32.4550 C.2    11  ASP11       0.2293
     45  O         17.2230   23.8220  -31.5210 O.2    11  ASP11      -0.2864
     46  CB        15.6060   23.7630  -34.4930 C.3    11  ASP11       0.1436
     47  CG        14.6980   24.5860  -33.6150 C.2    11  ASP11       0.3671
     48  OD1       15.1600   25.5360  -32.9520 O.co2  11  ASP11      -0.2456
     49  OD2       13.5040   24.2870  -33.5980 O.co2  11  ASP11      -0.2456
     50  N         19.6730   17.3020  -30.7850 N.3    14  HIS14      -0.1241
     51  CA        19.4800   15.9550  -30.2610 C.3    14  HIS14       0.1621
     52  C         20.6480   15.0400  -30.6850 C.2    14  HIS14       0.2264
     53  O         21.5330   15.4540  -31.4340 O.2    14  HIS14      -0.2867
     54  CB        18.1200   15.3850  -30.7310 C.3    14  HIS14       0.0745
     55  CG        17.8780   15.5030  -32.2100 C.ar   14  HIS14       0.0817
     56  ND1       18.3650   14.5900  -33.1230 N.ar   14  HIS14      -0.2268
     57  CD2       17.1660   16.4050  -32.9270 C.ar   14  HIS14       0.1154
     58  CE1       17.9580   14.9230  -34.3360 C.ar   14  HIS14       0.1986
     59  NE2       17.2320   16.0220  -34.2450 N.ar   14  HIS14      -0.2212
     60  N         20.7830   12.6930  -32.7570 N.3    16  GLY16      -0.1210
     61  CA        20.8880   12.4040  -34.1800 C.3    16  GLY16       0.1956
     62  C         21.7960   13.4550  -34.8100 C.2    16  GLY16       0.2611
     63  O         22.6000   13.1830  -35.6950 O.2    16  GLY16      -0.2717
     64  N         21.6260   14.6920  -34.3660 N.am   17  HIS17      -0.1975
     65  CA        22.4400   15.7850  -34.8610 C.3    17  HIS17       0.1656
     66  C         23.8820   15.5390  -34.4720 C.2    17  HIS17       0.2291
     67  O         24.7730   15.7890  -35.2690 O.2    17  HIS17      -0.2864
     68  CB        22.0050   17.1120  -34.2480 C.3    17  HIS17       0.0771
     69  CG        20.6920   17.6220  -34.7510 C.ar   17  HIS17       0.0820
     70  ND1       19.8520   18.3820  -33.9750 N.ar   17  HIS17      -0.2267
     71  CD2       20.1060   17.5390  -35.9680 C.ar   17  HIS17       0.1154
     72  CE1       18.8050   18.7530  -34.6930 C.ar   17  HIS17       0.1986
     73  NE2       18.9360   18.2540  -35.9060 N.ar   17  HIS17      -0.2212
     74  N         25.6830   12.9270  -36.5540 N.3    20  LEU20      -0.1245
     75  CA        25.9560   13.4190  -37.8830 C.3    20  LEU20       0.1561
     76  C         27.2320   14.2360  -37.7870 C.2    20  LEU20       0.2260
     77  O         28.1580   14.0370  -38.5610 O.2    20  LEU20      -0.2867
     78  CB        24.7940   14.2890  -38.3750 C.3    20  LEU20       0.0270
     79  CG        24.8110   14.9340  -39.7670 C.3    20  LEU20       0.0019
     80  CD1       25.6880   16.1670  -39.8260 C.3    20  LEU20       0.0001
     81  CD2       25.2060   13.9020  -40.7940 C.3    20  LEU20       0.0001
     82  N         30.3410   12.0310  -37.3350 N.3    23  ARG23      -0.1245
     83  CA        30.7420   11.3850  -38.5630 C.3    23  ARG23       0.1563
     84  C         31.2660   12.3540  -39.6280 C.2    23  ARG23       0.2260
     85  O         32.1860   12.0210  -40.3760 O.2    23  ARG23      -0.2867
     86  CB        29.5850   10.5510  -39.0970 C.3    23  ARG23       0.0307
     87  CG        29.2480    9.3810  -38.1880 C.3    23  ARG23       0.0489
     88  CD        28.0310    8.5950  -38.6950 C.3    23  ARG23       0.2205
     89  NE        26.7920    9.3720  -38.6190 N.pl3  23  ARG23      -0.0865
     90  CZ        25.7240    9.1760  -39.3900 C.cat  23  ARG23       0.5346
     91  NH1       25.7290    8.2210  -40.3090 N.pl3  23  ARG23       0.1354
     92  NH2       24.6530    9.9470  -39.2510 N.pl3  23  ARG23       0.1354
     93  N          9.3630   27.0640  -42.3590 N.3    46  LYS46      -0.1245
     94  CA         9.8310   26.0910  -41.3760 C.3    46  LYS46       0.1561
     95  C         10.4150   26.8870  -40.2160 C.2    46  LYS46       0.2260
     96  O         11.6210   27.0800  -40.1590 O.2    46  LYS46      -0.2867
     97  CB        10.9380   25.2540  -42.0250 C.3    46  LYS46       0.0271
     98  CG        11.5180   24.1440  -41.1810 C.3    46  LYS46       0.0035
     99  CD        10.5170   23.0180  -41.0160 C.3    46  LYS46       0.0206
    100  CE        11.2170   21.7070  -40.6820 C.3    46  LYS46       0.1093
    101  NZ        12.0810   21.2130  -41.8050 N.3    46  LYS46      -0.1314
    102  N         25.9040   15.5160  -46.4560 N.3    91  MET91      -0.1230
    103  CA        24.4560   15.7150  -46.2700 C.3    91  MET91       0.1702
    104  C         23.8200   14.4040  -45.8490 C.2    91  MET91       0.2592
    105  O         24.4020   13.3390  -46.0100 O.2    91  MET91      -0.2718
    106  CB        23.7540   16.1970  -47.5530 C.3    91  MET91       0.0401
    107  CG        23.9270   17.6620  -47.8770 C.3    91  MET91       0.0596
    108  SD        23.5090   18.7720  -46.5380 S.3    91  MET91      -0.1393
    109  CE        21.8440   19.3300  -47.0520 C.3    91  MET91       0.0692
    110  N         22.6230   14.4750  -45.2930 N.am   92  GLY92      -0.1957
    111  CA        21.9610   13.2480  -44.8960 C.3    92  GLY92       0.1869
    112  C         21.5620   12.5510  -46.1700 C.2    92  GLY92       0.2309
    113  O         21.3520   13.2220  -47.1800 O.2    92  GLY92      -0.2863
    114  N         18.8870   11.5560  -47.1880 N.3    94  ASP94      -0.1225
    115  CA        17.5560   11.8840  -47.6740 C.3    94  ASP94       0.1805
    116  C         17.6900   12.9040  -48.8130 C.2    94  ASP94       0.2597
    117  O         16.6980   13.3090  -49.4200 O.2    94  ASP94      -0.2718
    118  CB        16.6340   12.4010  -46.5370 C.3    94  ASP94       0.1424
    119  CG        17.2940   13.4530  -45.6360 C.2    94  ASP94       0.3668
    120  OD1       18.4400   13.2500  -45.1900 O.co2  94  ASP94      -0.2456
    121  OD2       16.6450   14.4740  -45.3260 O.co2  94  ASP94      -0.2456
    122  N         18.9350   13.3290  -49.0670 N.am   95  TRP95      -0.1976
    123  CA        19.2840   14.2960  -50.1160 C.3    95  TRP95       0.1640
    124  C         20.0780   13.6030  -51.2220 C.2    95  TRP95       0.2290
    125  O         20.5660   14.2460  -52.1550 O.2    95  TRP95      -0.2864
    126  CB        20.1220   15.4240  -49.5320 C.3    95  TRP95       0.0576
    127  CG        19.4250   16.1810  -48.4590 C.ar   95  TRP95       0.0006
    128  CD1       19.5180   15.9780  -47.1130 C.ar   95  TRP95       0.0946
    129  CD2       18.5540   17.2990  -48.6330 C.ar   95  TRP95       0.0152
    130  NE1       18.7700   16.9070  -46.4380 N.ar   95  TRP95      -0.2442
    131  CE2       18.1670   17.7320  -47.3490 C.ar   95  TRP95       0.0810
    132  CE3       18.0660   17.9840  -49.7530 C.ar   95  TRP95       0.0012
    133  CZ2       17.3140   18.8220  -47.1500 C.ar   95  TRP95       0.0191
    134  CZ3       17.2160   19.0720  -49.5550 C.ar   95  TRP95       0.0001
    135  CH2       16.8510   19.4790  -48.2600 C.ar   95  TRP95       0.0015
    136  N         25.3610   10.6890  -45.6240 N.3   111  LEU111     -0.1231
    137  CA        25.3890    9.8260  -44.4490 C.3   111  LEU111      0.1678
    138  C         23.9760    9.4320  -44.0210 C.2   111  LEU111      0.2434
    139  O         23.0300   10.2380  -44.0690 O.2   111  LEU111     -0.2733
    140  CB        26.1190   10.5230  -43.2880 C.3   111  LEU111      0.0284
    141  CG        27.5950   10.9080  -43.4500 C.3   111  LEU111      0.0019
    142  CD1       28.0340   11.7900  -42.2960 C.3   111  LEU111      0.0001
    143  CD2       28.4540    9.6670  -43.5200 C.3   111  LEU111      0.0001
    144  N         23.7970    8.1620  -43.6470 N.am  112  PRO112     -0.2718
    145  CA        22.4730    7.7380  -43.2210 C.3   112  PRO112      0.1535
    146  C         22.0680    8.4380  -41.9240 C.2   112  PRO112      0.2598
    147  O         22.8840    8.6120  -41.0170 O.2   112  PRO112     -0.2715
    148  CB        22.6480    6.2350  -43.0280 C.3   112  PRO112      0.0310
    149  CG        24.1070    6.0810  -42.6960 C.3   112  PRO112      0.0237
    150  CD        24.7450    7.0360  -43.6470 C.3   112  PRO112      0.0939
    151  N         20.8180    8.8890  -41.8810 N.am  113  ARG113     -0.1964
    152  CA        20.2660    9.5480  -40.7010 C.3   113  ARG113      0.1729
    153  C         20.1380    8.5640  -39.5430 C.2   113  ARG113      0.2616
    154  O         20.1140    7.3420  -39.7390 O.2   113  ARG113     -0.2715
    155  CB        18.8710   10.0920  -40.9960 C.3   113  ARG113      0.0348
    156  CG        18.8090   11.2800  -41.9350 C.3   113  ARG113      0.0492
    157  CD        17.3510   11.6270  -42.2720 C.3   113  ARG113      0.2205
    158  NE        16.5330   11.9490  -41.0960 N.pl3 113  ARG113     -0.0865
    159  CZ        16.1960   13.1860  -40.7310 C.cat 113  ARG113      0.5346
    160  NH1       16.6020   14.2370  -41.4380 N.pl3 113  ARG113      0.1354
    161  NH2       15.4210   13.3730  -39.6730 N.pl3 113  ARG113      0.1354
    162  N         20.0390    9.1130  -38.3380 N.am  114  THR114     -0.1951
    163  CA        19.8580    8.3200  -37.1340 C.3   114  THR114      0.1897
    164  C         18.3630    8.0480  -36.9790 C.2   114  THR114      0.2313
    165  O         17.5500    8.9780  -36.9800 O.2   114  THR114     -0.2863
    166  CB        20.3870    9.0530  -35.9060 C.3   114  THR114      0.1794
    167  OG1       21.8070    8.9170  -35.8660 O.3   114  THR114     -0.2208
    168  CG2       19.8290    8.4490  -34.6450 C.3   114  THR114      0.0378
    169  N         14.5820    9.5540  -34.2810 N.3   117  ILE117     -0.1231
    170  CA        14.7200   10.8860  -33.6930 C.3   117  ILE117      0.1692
    171  C         14.8060   11.9980  -34.7310 C.2   117  ILE117      0.2593
    172  O         15.5100   11.8800  -35.7320 O.2   117  ILE117     -0.2718
    173  CB        15.9830   10.9650  -32.7590 C.3   117  ILE117      0.0266
    174  CG1       16.0730   12.3310  -32.0620 C.3   117  ILE117      0.0019
    175  CG2       17.2540   10.6980  -33.5550 C.3   117  ILE117      0.0020
    176  CD1       14.9340   12.6360  -31.1240 C.3   117  ILE117      0.0001
    177  N         14.0850   13.0800  -34.4780 N.am  118  SER118     -0.1938
    178  CA        14.1070   14.2340  -35.3490 C.3   118  SER118      0.2055
    179  C         13.5060   15.3830  -34.5940 C.2   118  SER118      0.2644
    180  O         12.8710   15.1900  -33.5610 O.2   118  SER118     -0.2714
    181  CB        13.3410   13.9920  -36.6520 C.3   118  SER118      0.2130
    182  OG        11.9910   13.6440  -36.4110 O.3   118  SER118     -0.2179
    183  N         13.7580   16.5870  -35.0790 N.am  119  THR119     -0.1936
    184  CA        13.2380   17.7730  -34.4490 C.3   119  THR119      0.2028
    185  C         11.7030   17.8640  -34.5060 C.2   119  THR119      0.2642
    186  O         11.0940   18.3220  -33.5400 O.2   119  THR119     -0.2714
    187  CB        13.9340   19.0250  -35.0120 C.3   119  THR119      0.1808
    188  OG1       15.3130   18.9690  -34.6370 O.3   119  THR119     -0.2208
    189  CG2       13.3160   20.3010  -34.4650 C.3   119  THR119      0.0379
    190  N         11.0610   17.4170  -35.5880 N.am  120  THR120     -0.1950
    191  CA         9.5910   17.5100  -35.6180 C.3   120  THR120      0.1897
    192  C          8.9380   16.5420  -34.6540 C.2   120  THR120      0.2313
    193  O          7.9680   16.8990  -34.0140 O.2   120  THR120     -0.2863
    194  CB         8.9370   17.3700  -37.0290 C.3   120  THR120      0.1794
    195  OG1        9.0950   16.0400  -37.5340 O.3   120  THR120     -0.2208
    196  CG2        9.5240   18.3810  -38.0000 C.3   120  THR120      0.0378
@<TRIPOS>BOND
     1   125   124    2
     2   124   123    1
     3   123   126    1
     4   123   122    1
     5   132   134   ar
     6   132   129   ar
     7   134   135   ar
     8   126   127    1
     9   117   116    2
    10   122   116   am
    11   116   115    1
    12   129   127   ar
    13   129   131   ar
    14   127   128   ar
    15    19    18    1
    16   135   133   ar
    17   107   106    1
    18   107   108    1
    19    18    16   ar
    20    18    17   ar
    21   115   114    1
    22   115   118    1
    23   106   103    1
    24    16    14   ar
    25   131   133   ar
    26   131   130   ar
    27   113   112    2
    28   128   130   ar
    29    17    15   ar
    30   109   108    1
    31    14    13   ar
    32   118   119    1
    33   102   103    1
    34    15    13   ar
    35   103   104    1
    36   112   111    1
    37    13    12    1
    38   105   104    2
    39   104   110   am
    40   119   121   ar
    41   119   120   ar
    42   136   137    1
    43   110   111    1
    44    12     9    1
    45   137   138    1
    46   137   140    1
    47     8     9    1
    48     8     3   am
    49   139   138    2
    50   138   144   am
    51     1     2    1
    52     2     3    1
    53     2     5    1
    54     9    10    1
    55     3     4    2
    56   144   150    1
    57   144   145    1
    58   150   149    1
    59   143   141    1
    60   141   140    1
    61   141   142    1
    62    11    10    2
    63   145   148    1
    64   145   146    1
    65    10    20   am
    66     6     5    1
    67   148   149    1
    68     5     7    1
    69    20    21    1
    70    93    94    1
    71   157   156    1
    72   157   158    1
    73    97    94    1
    74    97    98    1
    75   156   155    1
    76   146   151   am
    77   146   147    2
    78   151   152    1
    79   101   100    1
    80    21    22    1
    81   160   159    1
    82    94    95    1
    83    98    99    1
    84   158   159    2
    85    99   100    1
    86   155   152    1
    87    23    22    2
    88    81    79    1
    89    22    24   am
    90   159   161    1
    91   152   153    1
    92    29    28    1
    93    85    84    2
    94    91    90    1
    95    95    96    2
    96    24    25    1
    97    80    79    1
    98    79    78    1
    99   154   153    2
   100    84    83    1
   101   153   162   am
   102    90    92    1
   103    90    89    2
   104    28    25    1
   105    28    30    1
   106    86    83    1
   107    86    87    1
   108    25    26    1
   109    40    41   ar
   110    40    38   ar
   111    88    89    1
   112    88    87    1
   113    83    82    1
   114    77    76    2
   115    41    39   ar
   116    78    75    1
   117   162   163    1
   118   196   194    1
   119    38    36   ar
   120    75    76    1
   121    75    74    1
   122    26    31   am
   123    26    27    2
   124   195   194    1
   125    39    37   ar
   126    31    32    1
   127   163   164    1
   128   163   166    1
   129   194   191    1
   130   165   164    2
   131    36    37   ar
   132    36    35    1
   133   181   182    1
   134   181   178    1
   135    71    73   ar
   136    71    69   ar
   137    73    72   ar
   138   166   167    1
   139   166   168    1
   140    32    35    1
   141    32    33    1
   142   172   171    2
   143    63    62    2
   144   191   190    1
   145   191   192    1
   146   190   185   am
   147   178   179    1
   148   178   177    1
   149    67    66    2
   150   183   179   am
   151   183   184    1
   152   187   188    1
   153   187   189    1
   154   187   184    1
   155    65    66    1
   156    65    64    1
   157    65    68    1
   158    42    33   am
   159    42    43    1
   160    33    34    2
   161    62    64   am
   162    62    61    1
   163    69    68    1
   164    69    70   ar
   165   171   177   am
   166   171   170    1
   167    72    70   ar
   168   192   193    2
   169   179   180    2
   170   185   184    1
   171   185   186    2
   172    46    43    1
   173    46    47    1
   174    58    59   ar
   175    58    56   ar
   176   169   170    1
   177    59    57   ar
   178    61    60    1
   179    43    44    1
   180   170   173    1
   181    47    49   ar
   182    47    48   ar
   183   175   173    1
   184    56    55   ar
   185    57    55   ar
   186   173   174    1
   187    44    45    2
   188    55    54    1
   189   174   176    1
   190    53    52    2
   191    50    51    1
   192    54    51    1
   193    52    51    1
