@<TRIPOS>MOLECULE
tmp/1cp3C00.pdb
 184 184 0 0 0
SMALL
GASTEIGER

@<TRIPOS>ATOM
      1  N         11.3190    9.7450   -4.9570 N.3    30  ARG30      -0.1231
      2  CA        10.3880    9.2080   -3.9930 C.3    30  ARG30       0.1694
      3  C          8.9580    9.2380   -4.4910 C.2    30  ARG30       0.2592
      4  O          8.1710   10.1150   -4.1240 O.2    30  ARG30      -0.2718
      5  CB        10.5540    9.9470   -2.6630 C.3    30  ARG30       0.0321
      6  CG        11.9420    9.7800   -2.0210 C.3    30  ARG30       0.0489
      7  CD        12.0010   10.5190   -0.6870 C.3    30  ARG30       0.2205
      8  NE        10.9550   10.0290    0.2040 N.pl3  30  ARG30      -0.0865
      9  CZ         9.8160   10.6720    0.4690 C.cat  30  ARG30       0.5346
     10  NH1        9.5630   11.8660   -0.0690 N.pl3  30  ARG30       0.1354
     11  NH2        8.8930   10.0740    1.2120 N.pl3  30  ARG30       0.1354
     12  N          8.6490    8.2760   -5.3550 N.am   31  SER31      -0.1952
     13  CA         7.3220    8.1380   -5.9400 C.3    31  SER31       0.1924
     14  C          6.3120    7.6790   -4.8940 C.2    31  SER31       0.2314
     15  O          6.5170    6.6840   -4.2060 O.2    31  SER31      -0.2863
     16  CB         7.3750    7.1300   -7.0830 C.3    31  SER31       0.2116
     17  OG         8.4190    6.1920   -6.8560 O.3    31  SER31      -0.2180
     18  N         11.1500   12.4290    3.2540 N.3    86  SER86      -0.1202
     19  CA        12.3720   12.4170    2.4770 C.3    86  SER86       0.2020
     20  C         13.1490   11.1480    2.7140 C.2    86  SER86       0.2619
     21  O         12.6190   10.1780    3.2560 O.2    86  SER86      -0.2717
     22  CB        13.2320   13.6330    2.8610 C.3    86  SER86       0.2103
     23  OG        14.4870   13.6170    2.2000 O.3    86  SER86      -0.2182
     24  N         14.3520   11.1260    2.1500 N.am   87  HIS87      -0.1961
     25  CA        15.2900   10.0320    2.3150 C.3    87  HIS87       0.1787
     26  C         16.0170   10.3960    3.6200 C.2    87  HIS87       0.2620
     27  O         15.9840   11.5570    4.0610 O.2    87  HIS87      -0.2715
     28  CB        16.3160   10.0310    1.1660 C.3    87  HIS87       0.0785
     29  CG        15.8800    9.2900   -0.0610 C.ar   87  HIS87       0.0821
     30  ND1       15.6790    7.9230   -0.0790 N.ar   87  HIS87      -0.2267
     31  CD2       15.6050    9.7290   -1.3140 C.ar   87  HIS87       0.1154
     32  CE1       15.2900    7.5530   -1.2870 C.ar   87  HIS87       0.1986
     33  NE2       15.2390    8.6300   -2.0540 N.ar   87  HIS87      -0.2212
     34  N         16.6870    9.4310    4.2310 N.am   88  GLY88      -0.1954
     35  CA        17.4130    9.7460    5.4430 C.3    88  GLY88       0.1869
     36  C         18.2350    8.6170    6.0030 C.2    88  GLY88       0.2309
     37  O         18.2680    7.5170    5.4390 O.2    88  GLY88      -0.2863
     38  N          9.0920   10.5290    8.0710 N.3   127  GLN127     -0.1231
     39  CA         9.0860    9.3800    7.1470 C.3   127  GLN127      0.1698
     40  C         10.4180    9.4510    6.3870 C.2   127  GLN127      0.2592
     41  O         10.7000   10.4300    5.6920 O.2   127  GLN127     -0.2718
     42  CB         7.8930    9.4270    6.1840 C.3   127  GLN127      0.0381
     43  CG         8.0100    8.5040    4.9880 C.3   127  GLN127      0.0905
     44  CD         8.1800    7.0400    5.3850 C.2   127  GLN127      0.2608
     45  OE1        7.4000    6.5160    6.1770 O.2   127  GLN127     -0.2717
     46  NE2        9.1770    6.3660    4.8050 N.am  127  GLN127     -0.0878
     47  N         11.2650    8.4620    6.6540 N.am  128  ALA128     -0.1966
     48  CA        12.6130    8.3460    6.0830 C.3   128  ALA128      0.1728
     49  C         13.2890    7.2050    6.8260 C.2   128  ALA128      0.2616
     50  O         12.8570    6.8320    7.9210 O.2   128  ALA128     -0.2715
     51  CB        13.4240    9.6580    6.2940 C.3   128  ALA128      0.0334
     52  N         14.2950    6.5990    6.2180 N.am  129  CYS129     -0.1968
     53  CA        14.9880    5.5080    6.8810 C.3   129  CYS129      0.1712
     54  C         15.8130    6.1030    7.9790 C.2   129  CYS129      0.2296
     55  O         16.0770    7.3170    7.9940 O.2   129  CYS129     -0.2864
     56  CB        15.9190    4.7690    5.9270 C.3   129  CYS129      0.0983
     57  SG        15.0780    3.8080    4.6780 S.3   129  CYS129     -0.0798
     58  N         18.6040    4.3050    8.8390 N.3   131  GLY131     -0.1225
     59  CA        19.7220    3.3870    8.7020 C.3   131  GLY131      0.1811
     60  C         19.4770    2.2910    7.6680 C.2   131  GLY131      0.2280
     61  O         18.5870    2.4230    6.8140 O.2   131  GLY131     -0.2866
     62  N         15.3070    0.4030    8.1000 N.3   159  TYR159     -0.1227
     63  CA        14.7360    0.7970    6.8300 C.3   159  TYR159      0.1736
     64  C         13.2940    1.2450    7.0890 C.2   159  TYR159      0.2596
     65  O         12.6460    0.7660    8.0320 O.2   159  TYR159     -0.2718
     66  CB        14.6920   -0.4290    5.9290 C.3   159  TYR159      0.0548
     67  CG        15.8680   -0.5410    5.0270 C.ar  159  TYR159     -0.0200
     68  CD1       16.2990    0.5470    4.2960 C.ar  159  TYR159     -0.0009
     69  CD2       16.5020   -1.7570    4.8390 C.ar  159  TYR159     -0.0009
     70  CE1       17.3270    0.4240    3.3850 C.ar  159  TYR159      0.0417
     71  CE2       17.5340   -1.8980    3.9350 C.ar  159  TYR159      0.0417
     72  CZ        17.9380   -0.8000    3.2040 C.ar  159  TYR159      0.1957
     73  OH        18.9230   -0.9220    2.2590 O.3   159  TYR159     -0.2866
     74  N         12.8260    2.1930    6.2830 N.am  160  SER160     -0.1938
     75  CA        11.4500    2.6960    6.3310 C.3   160  SER160      0.2055
     76  C         10.9050    2.4110    4.9290 C.2   160  SER160      0.2643
     77  O         11.5310    2.7860    3.9350 O.2   160  SER160     -0.2714
     78  CB        11.4360    4.2010    6.5450 C.3   160  SER160      0.2130
     79  OG        10.1100    4.6690    6.6140 O.3   160  SER160     -0.2179
     80  N          9.7340    1.7950    4.8580 N.am  161  TRP161     -0.1959
     81  CA         9.1330    1.4380    3.5920 C.3   161  TRP161      0.1771
     82  C          8.0780    2.3740    3.0290 C.2   161  TRP161      0.2620
     83  O          7.2520    2.9470    3.7600 O.2   161  TRP161     -0.2715
     84  CB         8.6000    0.0160    3.6460 C.3   161  TRP161      0.0590
     85  CG         9.6710   -0.9900    3.8680 C.ar  161  TRP161      0.0006
     86  CD1       10.0660   -1.5090    5.0570 C.ar  161  TRP161      0.0946
     87  CD2       10.4970   -1.5970    2.8630 C.ar  161  TRP161      0.0152
     88  NE1       11.0930   -2.4010    4.8660 N.ar  161  TRP161     -0.2442
     89  CE2       11.3790   -2.4740    3.5280 C.ar  161  TRP161      0.0810
     90  CE3       10.5820   -1.4750    1.4640 C.ar  161  TRP161      0.0012
     91  CZ2       12.3410   -3.2340    2.8480 C.ar  161  TRP161      0.0191
     92  CZ3       11.5360   -2.2240    0.7870 C.ar  161  TRP161      0.0001
     93  CH2       12.4070   -3.0930    1.4850 C.ar  161  TRP161      0.0015
     94  N          8.1030    2.4820    1.7010 N.am  162  ARG162     -0.1963
     95  CA         7.2080    3.3420    0.9340 C.3   162  ARG162      0.1729
     96  C          6.7530    2.5420   -0.2840 C.2   162  ARG162      0.2616
     97  O          7.4780    1.6980   -0.8010 O.2   162  ARG162     -0.2715
     98  CB         7.9730    4.5820    0.4920 C.3   162  ARG162      0.0348
     99  CG         7.1830    5.7390   -0.0780 C.3   162  ARG162      0.0492
    100  CD         8.1630    6.7860   -0.6030 C.3   162  ARG162      0.2205
    101  NE         8.6300    6.4430   -1.9540 N.pl3 162  ARG162     -0.0865
    102  CZ         9.8750    6.1080   -2.3130 C.cat 162  ARG162      0.5346
    103  NH1       10.8810    6.0580   -1.4460 N.pl3 162  ARG162      0.1354
    104  NH2       10.0940    5.7460   -3.5660 N.pl3 162  ARG162      0.1354
    105  N          5.5000    2.7390   -0.6590 N.am  163  ASN163     -0.1958
    106  CA         4.9160    2.0700   -1.8070 C.3   163  ASN163      0.1819
    107  C          4.8220    3.1520   -2.8870 C.2   163  ASN163      0.2622
    108  O          4.2900    4.2410   -2.6460 O.2   163  ASN163     -0.2715
    109  CB         3.5350    1.5070   -1.4410 C.3   163  ASN163      0.1195
    110  CG         2.8310    0.8580   -2.6240 C.2   163  ASN163      0.2630
    111  OD1        2.5550    1.5100   -3.6310 O.2   163  ASN163     -0.2716
    112  ND2        2.5360   -0.4240   -2.5080 N.am  163  ASN163     -0.0877
    113  N          5.3550    2.8520   -4.0650 N.am  164  SER164     -0.1936
    114  CA         5.3670    3.7850   -5.1830 C.3   164  SER164      0.2055
    115  C          3.9930    4.3230   -5.5560 C.2   164  SER164      0.2642
    116  O          3.8790    5.4240   -6.0740 O.2   164  SER164     -0.2714
    117  CB         6.0030    3.1280   -6.4010 C.3   164  SER164      0.2130
    118  OG         7.2270    2.4910   -6.0620 O.3   164  SER164     -0.2179
    119  N          2.9400    3.5660   -5.2930 N.am  165  LYS165     -0.1977
    120  CA         1.6340    4.0620   -5.6400 C.3   165  LYS165      0.1596
    121  C          0.7270    4.4370   -4.4740 C.2   165  LYS165      0.2287
    122  O         -0.1640    5.2680   -4.6430 O.2   165  LYS165     -0.2864
    123  CB         0.9270    3.0890   -6.5770 C.3   165  LYS165      0.0298
    124  CG         0.4960    1.7820   -5.9440 C.3   165  LYS165      0.0038
    125  CD        -0.6390    1.1180   -6.7480 C.3   165  LYS165      0.0206
    126  CE        -1.8560    2.0540   -6.8820 C.3   165  LYS165      0.1093
    127  NZ        -2.9920    1.4550   -7.6480 N.3   165  LYS165     -0.1314
    128  N          3.9360    3.3230    4.2690 N.3   169  TRP169     -0.1241
    129  CA         3.1420    2.5480    5.2050 C.3   169  TRP169      0.1605
    130  C          2.7610    3.4220    6.4180 C.2   169  TRP169      0.2264
    131  O          1.5960    3.5260    6.7910 O.2   169  TRP169     -0.2867
    132  CB         3.9670    1.3720    5.6980 C.3   169  TRP169      0.0550
    133  CG         4.4530    0.4560    4.6540 C.ar  169  TRP169      0.0003
    134  CD1        4.1690    0.4900    3.2990 C.ar  169  TRP169      0.0946
    135  CD2        5.2510   -0.7070    4.8700 C.ar  169  TRP169      0.0152
    136  NE1        4.7390   -0.5990    2.6740 N.ar  169  TRP169     -0.2442
    137  CE2        5.4100   -1.3480    3.6080 C.ar  169  TRP169      0.0810
    138  CE3        5.8520   -1.2750    6.0030 C.ar  169  TRP169      0.0012
    139  CZ2        6.1410   -2.5270    3.4590 C.ar  169  TRP169      0.0191
    140  CZ3        6.5810   -2.4450    5.8520 C.ar  169  TRP169      0.0001
    141  CH2        6.7210   -3.0610    4.5880 C.ar  169  TRP169      0.0015
    142  N          3.9080   -5.6550    4.8660 N.3   203  GLU203     -0.1231
    143  CA         5.0020   -6.6020    4.6840 C.3   203  GLU203      0.1699
    144  C          5.4270   -6.2580    3.2910 C.2   203  GLU203      0.2593
    145  O          4.5810   -6.0600    2.4340 O.2   203  GLU203     -0.2718
    146  CB         4.5110   -8.0460    4.7400 C.3   203  GLU203      0.0402
    147  CG         5.6380   -9.0240    4.5330 C.3   203  GLU203      0.1161
    148  CD         5.2300  -10.4890    4.5750 C.2   203  GLU203      0.3649
    149  OE1        4.8640  -10.9910    5.6600 O.co2 203  GLU203     -0.2457
    150  OE2        5.3250  -11.1570    3.5150 O.co2 203  GLU203     -0.2457
    151  N          6.7190   -6.1040    3.0510 N.am  204  SER204     -0.1938
    152  CA         7.1390   -5.7220    1.7150 C.3   204  SER204      0.2055
    153  C          7.0910   -6.8290    0.6370 C.2   204  SER204      0.2643
    154  O          7.1760   -8.0240    0.9410 O.2   204  SER204     -0.2714
    155  CB         8.5280   -5.0940    1.7660 C.3   204  SER204      0.2130
    156  OG         9.5150   -6.0810    1.9570 O.3   204  SER204     -0.2179
    157  N          6.9730   -6.4030   -0.6240 N.am  205  PHE205     -0.1959
    158  CA         6.9680   -7.3120   -1.7790 C.3   205  PHE205      0.1771
    159  C          8.0940   -6.8670   -2.7380 C.2   205  PHE205      0.2620
    160  O          8.2280   -5.6790   -3.0920 O.2   205  PHE205     -0.2715
    161  CB         5.5960   -7.3190   -2.4910 C.3   205  PHE205      0.0574
    162  CG         5.4900   -8.3460   -3.6030 C.ar  205  PHE205     -0.0200
    163  CD1        5.9270   -8.0450   -4.8930 C.ar  205  PHE205     -0.0042
    164  CD2        5.0450   -9.6350   -3.3370 C.ar  205  PHE205     -0.0042
    165  CE1        5.9360   -9.0040   -5.8830 C.ar  205  PHE205     -0.0003
    166  CE2        5.0510  -10.6070   -4.3320 C.ar  205  PHE205     -0.0003
    167  CZ         5.5030  -10.2830   -5.6080 C.ar  205  PHE205     -0.0000
    168  N          8.8790   -7.8300   -3.1890 N.am  206  SER206     -0.1950
    169  CA         9.9790   -7.5160   -4.0740 C.3   206  SER206      0.1924
    170  C         10.4460   -8.7720   -4.7820 C.2   206  SER206      0.2314
    171  O         10.2650   -9.8840   -4.2470 O.2   206  SER206     -0.2863
    172  CB        11.1390   -6.9370   -3.2560 C.3   206  SER206      0.2116
    173  OG        12.2290   -6.6230   -4.0960 O.3   206  SER206     -0.2180
    174  N         14.9120   -7.6240   -0.3350 N.3   211  PHE211     -0.1241
    175  CA        13.9010   -6.6800    0.0870 C.3   211  PHE211      0.1605
    176  C         12.4770   -7.1990    0.1320 C.2   211  PHE211      0.2264
    177  O         11.5290   -6.4390    0.3140 O.2   211  PHE211     -0.2867
    178  CB        14.0190   -5.4390   -0.7880 C.3   211  PHE211      0.0534
    179  CG        15.3790   -4.8140   -0.7260 C.ar  211  PHE211     -0.0203
    180  CD1       15.9220   -4.4260    0.5010 C.ar  211  PHE211     -0.0042
    181  CD2       16.1460   -4.6670   -1.8740 C.ar  211  PHE211     -0.0042
    182  CE1       17.2070   -3.9080    0.5810 C.ar  211  PHE211     -0.0003
    183  CE2       17.4450   -4.1450   -1.8060 C.ar  211  PHE211     -0.0003
    184  CZ        17.9710   -3.7680   -0.5770 C.ar  211  PHE211     -0.0000
@<TRIPOS>BOND
     1   127   126    1
     2    16    17    1
     3    16    13    1
     4   126   125    1
     5   125   124    1
     6   123   124    1
     7   123   120    1
     8   117   118    1
     9   117   114    1
    10   116   115    2
    11    13    12    1
    12    13    14    1
    13   165   167   ar
    14   165   163   ar
    15   120   119    1
    16   120   121    1
    17   167   166   ar
    18   115   119   am
    19   115   114    1
    20    12     3   am
    21   114   113    1
    22     1     2    1
    23    14    15    2
    24   163   162   ar
    25   170   171    2
    26   170   169    1
    27   122   121    2
    28     3     4    2
    29     3     2    1
    30   166   164   ar
    31   173   172    1
    32   169   172    1
    33   169   168    1
    34   113   107   am
    35     2     5    1
    36   111   110    2
    37   162   164   ar
    38   162   161    1
    39   104   102    1
    40   168   159   am
    41   160   159    2
    42   107   108    2
    43   107   106    1
    44   159   158    1
    45     5     6    1
    46   110   112   am
    47   110   109    1
    48   161   158    1
    49   102   101    2
    50   102   103    1
    51    33    31   ar
    52    33    32   ar
    53     6     7    1
    54   101   100    1
    55   181   183   ar
    56   181   179   ar
    57   106   109    1
    58   106   105    1
    59   183   184   ar
    60   158   157    1
    61    31    29   ar
    62    32    30   ar
    63    97    96    2
    64   178   179    1
    65   178   175    1
    66   179   180   ar
    67     7     8    1
    68   105    96   am
    69   157   153   am
    70   100    99    1
    71   184   182   ar
    72   174   175    1
    73    96    95    1
    74    30    29   ar
    75    99    98    1
    76    10     9    1
    77    29    28    1
    78   175   176    1
    79   176   177    2
    80     8     9    2
    81     9    11    1
    82    98    95    1
    83   180   182   ar
    84   153   154    2
    85   153   152    1
    86    92    90   ar
    87    92    93   ar
    88    95    94    1
    89    28    25    1
    90    90    87   ar
    91    93    91   ar
    92    94    82   am
    93   152   155    1
    94   152   151    1
    95   155   156    1
    96    24    25    1
    97    24    20   am
    98    23    22    1
    99    73    72    1
   100    25    26    1
   101   145   144    2
   102    19    20    1
   103    19    22    1
   104    19    18    1
   105   136   134   ar
   106   136   137   ar
   107    20    21    2
   108    91    89   ar
   109    87    89   ar
   110    87    85   ar
   111    82    81    1
   112    82    83    2
   113   151   144   am
   114    72    70   ar
   115    72    71   ar
   116   144   143    1
   117   134   133   ar
   118    70    68   ar
   119   139   137   ar
   120   139   141   ar
   121   150   148   ar
   122    89    88   ar
   123    81    84    1
   124    81    80    1
   125   137   135   ar
   126    26    27    2
   127    26    34   am
   128    84    85    1
   129    85    86   ar
   130    77    76    2
   131    71    69   ar
   132    34    35    1
   133   128   129    1
   134    68    67   ar
   135   147   148    1
   136   147   146    1
   137   148   149   ar
   138   141   140   ar
   139   133   135   ar
   140   133   132    1
   141    57    56    1
   142   143   146    1
   143   143   142    1
   144    46    44   am
   145    69    67   ar
   146    80    76   am
   147    88    86   ar
   148   135   138   ar
   149    76    75    1
   150    43    44    1
   151    43    42    1
   152    67    66    1
   153   129   132    1
   154   129   130    1
   155    44    45    2
   156    37    36    2
   157    35    36    1
   158    41    40    2
   159   140   138   ar
   160    56    53    1
   161    66    63    1
   162    48    51    1
   163    48    47    1
   164    48    49    1
   165    42    39    1
   166    52    49   am
   167    52    53    1
   168    74    75    1
   169    74    64   am
   170    75    78    1
   171    40    47   am
   172    40    39    1
   173   130   131    2
   174    78    79    1
   175    61    60    2
   176    49    50    2
   177    63    64    1
   178    63    62    1
   179    53    54    1
   180    64    65    2
   181    39    38    1
   182    60    59    1
   183    54    55    2
   184    59    58    1
