@<TRIPOS>MOLECULE
tmp/1cpcB01.pdb
 140 132 0 0 0
SMALL
GASTEIGER

@<TRIPOS>ATOM
      1  N         -3.7250  -44.7270   13.0000 N.3    32  ALA32      -0.1245
      2  CA        -4.7470  -45.7960   13.1250 C.3    32  ALA32       0.1562
      3  C         -6.1600  -45.2680   13.2690 C.2    32  ALA32       0.2260
      4  O         -7.0440  -45.7950   12.5870 O.2    32  ALA32      -0.2867
      5  CB        -4.4460  -46.9070   14.1910 C.3    32  ALA32       0.0290
      6  N         -8.9990  -42.4920    9.7810 N.3    35  ASN35      -0.1225
      7  CA       -10.3500  -42.4360    9.1000 C.3    35  ASN35       0.1785
      8  C        -11.4370  -41.8880   10.0230 C.2    35  ASN35       0.2597
      9  O        -12.3130  -41.1760    9.5350 O.2    35  ASN35      -0.2718
     10  CB       -10.8630  -43.7710    8.5610 C.3    35  ASN35       0.1169
     11  CG        -9.9640  -44.3390    7.4640 C.2    35  ASN35       0.2627
     12  OD1       -9.8170  -45.5540    7.3810 O.2    35  ASN35      -0.2716
     13  ND2       -9.4080  -43.5240    6.6420 N.am   35  ASN35      -0.0877
     14  N        -11.3720  -42.2910   11.3120 N.am   36  LYS36      -0.1980
     15  CA       -12.3870  -41.8990   12.3110 C.3    36  LYS36       0.1596
     16  C        -12.3770  -40.3850   12.5340 C.2    36  LYS36       0.2287
     17  O        -13.4310  -39.7600   12.4690 O.2    36  LYS36      -0.2864
     18  CB       -12.1720  -42.5420   13.7010 C.3    36  LYS36       0.0298
     19  CG       -12.0360  -44.0640   13.6950 C.3    36  LYS36       0.0038
     20  CD       -11.7190  -44.5080   15.1370 C.3    36  LYS36       0.0206
     21  CE       -11.4310  -46.0000   15.2060 C.3    36  LYS36       0.1093
     22  NZ       -10.8360  -46.2680   16.5370 N.3    36  LYS36      -0.1314
     23  N        -11.4390  -38.2590   10.2790 N.3    38  MET38      -0.1230
     24  CA       -11.9240  -37.5650    9.1100 C.3    38  MET38       0.1702
     25  C        -13.4450  -37.6450    9.0490 C.2    38  MET38       0.2592
     26  O        -14.0470  -36.6360    8.6540 O.2    38  MET38      -0.2718
     27  CB       -11.2780  -38.0250    7.7680 C.3    38  MET38       0.0401
     28  CG        -9.7400  -37.7770    7.7600 C.3    38  MET38       0.0596
     29  SD        -9.2770  -36.0420    7.9080 S.3    38  MET38      -0.1393
     30  CE        -8.4650  -35.9510    9.4710 C.3    38  MET38       0.0692
     31  N        -13.9980  -38.7780    9.5760 N.am   39  ASP39      -0.1960
     32  CA       -15.4730  -38.8510    9.6950 C.3    39  ASP39       0.1840
     33  C        -16.0380  -37.7770   10.6270 C.2    39  ASP39       0.2621
     34  O        -17.0200  -37.1330   10.2670 O.2    39  ASP39      -0.2715
     35  CB       -16.0110  -40.1820   10.2380 C.3    39  ASP39       0.1450
     36  CG       -15.9790  -41.2410    9.1270 C.2    39  ASP39       0.3671
     37  OD1      -16.4630  -40.9160    8.0110 O.co2  39  ASP39      -0.2456
     38  OD2      -15.4530  -42.3770    9.3580 O.co2  39  ASP39      -0.2456
     39  N        -15.3820  -37.5320   11.7410 N.am   40  VAL40      -0.1977
     40  CA       -15.7510  -36.3690   12.6410 C.3    40  VAL40       0.1596
     41  C        -15.6120  -35.0170   11.9110 C.2    40  VAL40       0.2287
     42  O        -16.5740  -34.2540   11.9040 O.2    40  VAL40      -0.2864
     43  CB       -14.8850  -36.3560   13.9270 C.3    40  VAL40       0.0276
     44  CG1      -15.1190  -35.1260   14.8400 C.3    40  VAL40       0.0022
     45  CG2      -15.0570  -37.6940   14.6890 C.3    40  VAL40       0.0022
     46  N        -15.6850  -34.5250    8.6860 N.3    42  ASN42      -0.1225
     47  CA       -16.6800  -34.5510    7.5850 C.3    42  ASN42       0.1785
     48  C        -18.1090  -34.2270    8.0580 C.2    42  ASN42       0.2597
     49  O        -18.9140  -33.6590    7.3240 O.2    42  ASN42      -0.2718
     50  CB       -16.5980  -35.9390    6.8650 C.3    42  ASN42       0.1169
     51  CG       -17.4720  -35.9450    5.6040 C.2    42  ASN42       0.2627
     52  OD1      -17.3580  -35.0520    4.7760 O.2    42  ASN42      -0.2716
     53  ND2      -18.2910  -36.9630    5.4470 N.am   42  ASN42      -0.0877
     54  N        -18.4440  -34.8240    9.1650 N.am   43  ARG43      -0.1979
     55  CA       -19.8140  -34.8430    9.6920 C.3    43  ARG43       0.1597
     56  C        -20.1940  -33.4860   10.2430 C.2    43  ARG43       0.2287
     57  O        -21.2960  -33.0430    9.9460 O.2    43  ARG43      -0.2864
     58  CB       -19.9130  -35.9230   10.7970 C.3    43  ARG43       0.0334
     59  CG       -20.3480  -37.2700   10.1690 C.3    43  ARG43       0.0492
     60  CD       -20.1990  -38.5040   11.0930 C.3    43  ARG43       0.2205
     61  NE       -20.9320  -39.6420   10.4920 N.pl3  43  ARG43      -0.0865
     62  CZ       -21.4960  -40.5760   11.2730 C.cat  43  ARG43       0.5346
     63  NH1      -21.2940  -40.5030   12.5640 N.pl3  43  ARG43       0.1354
     64  NH2      -22.2760  -41.5720   10.7770 N.pl3  43  ARG43       0.1354
     65  N        -21.4460  -36.3390   15.0840 N.3   141  ALA141     -0.1231
     66  CA       -20.1780  -37.0790   14.8850 C.3   141  ALA141      0.1694
     67  C        -20.2410  -38.5070   15.4630 C.2   141  ALA141      0.2593
     68  O        -19.6880  -39.4090   14.8500 O.2   141  ALA141     -0.2718
     69  CB       -19.1190  -36.3090   15.7400 C.3   141  ALA141      0.0304
     70  N        -21.0430  -38.7140   16.5210 N.am  142  GLY142     -0.1942
     71  CA       -21.2360  -40.0020   17.2430 C.3   142  GLY142      0.2014
     72  C        -22.3930  -40.8590   16.7050 C.2   142  GLY142      0.2639
     73  O        -22.5650  -41.9990   17.1450 O.2   142  GLY142     -0.2714
     74  N        -23.1050  -40.3540   15.7000 N.am  143  ASP143     -0.1957
     75  CA       -24.1990  -41.1380   15.1670 C.3   143  ASP143      0.1840
     76  C        -23.7110  -42.4560   14.5090 C.2   143  ASP143      0.2622
     77  O        -22.9140  -42.4540   13.5710 O.2   143  ASP143     -0.2715
     78  CB       -24.9450  -40.1880   14.2550 C.3   143  ASP143      0.1450
     79  CG       -26.1250  -40.9540   13.6850 C.2   143  ASP143      0.3671
     80  OD1      -26.8570  -41.5820   14.4950 O.co2 143  ASP143     -0.2456
     81  OD2      -26.2950  -40.9250   12.4340 O.co2 143  ASP143     -0.2456
     82  N        -24.1690  -43.5910   15.0830 N.am  144  THR144     -0.1951
     83  CA       -23.7330  -44.9430   14.6690 C.3   144  THR144      0.1897
     84  C        -24.4440  -45.4530   13.4090 C.2   144  THR144      0.2313
     85  O        -24.0210  -46.4540   12.8330 O.2   144  THR144     -0.2863
     86  CB       -24.0620  -45.9300   15.7870 C.3   144  THR144      0.1794
     87  OG1      -25.4820  -45.8380   16.0160 O.3   144  THR144     -0.2208
     88  CG2      -23.2870  -45.6670   17.0930 C.3   144  THR144      0.0378
     89  N        -22.2560  -45.8250    9.1410 N.3   147  ILE147     -0.1231
     90  CA       -20.7940  -45.8840    9.3410 C.3   147  ILE147      0.1692
     91  C        -20.3890  -47.2930    9.8460 C.2   147  ILE147      0.2593
     92  O        -21.1820  -48.0390   10.4450 O.2   147  ILE147     -0.2718
     93  CB       -20.4410  -44.7570   10.3800 C.3   147  ILE147      0.0266
     94  CG1      -18.9480  -44.2680   10.3800 C.3   147  ILE147      0.0019
     95  CG2      -21.0120  -45.0630   11.7760 C.3   147  ILE147      0.0020
     96  CD1      -18.7130  -42.8160   10.8500 C.3   147  ILE147      0.0001
     97  N        -19.1190  -47.6220    9.6370 N.am  148  THR148     -0.1939
     98  CA       -18.5200  -48.8190   10.2200 C.3   148  THR148      0.2028
     99  C        -18.3710  -48.5940   11.7090 C.2   148  THR148      0.2642
    100  O        -17.7750  -47.6050   12.1270 O.2   148  THR148     -0.2714
    101  CB       -17.1500  -49.1220    9.5840 C.3   148  THR148      0.1808
    102  OG1      -17.3360  -49.2770    8.1780 O.3   148  THR148     -0.2208
    103  CG2      -16.4130  -50.3640   10.1610 C.3   148  THR148      0.0379
    104  N        -18.9460  -49.5070   12.4500 N.am  149  ARG149     -0.1963
    105  CA       -18.9290  -49.4700   13.9260 C.3   149  ARG149      0.1729
    106  C        -17.5130  -49.7100   14.4540 C.2   149  ARG149      0.2616
    107  O        -16.7230  -50.4800   13.9120 O.2   149  ARG149     -0.2715
    108  CB       -19.8340  -50.6440   14.3300 C.3   149  ARG149      0.0348
    109  CG       -20.4330  -51.2560   13.0280 C.3   149  ARG149      0.0492
    110  CD       -19.7090  -52.4280   12.2580 C.3   149  ARG149      0.2205
    111  NE       -19.9410  -52.4440   10.7590 N.pl3 149  ARG149     -0.0865
    112  CZ       -20.8390  -51.8190    9.9280 C.cat 149  ARG149      0.5346
    113  NH1      -21.8230  -50.9830   10.2960 N.pl3 149  ARG149      0.1354
    114  NH2      -20.6620  -51.8990    8.6060 N.pl3 149  ARG149      0.1354
    115  N        -17.2120  -49.0170   15.4940 N.am  150  GLY150     -0.1955
    116  CA       -15.8710  -49.0710   16.1140 C.3   150  GLY150      0.1869
    117  C        -15.8510  -48.1610   17.3250 C.2   150  GLY150      0.2309
    118  O        -16.8230  -47.4770   17.6360 O.2   150  GLY150     -0.2863
    119  N        -14.6340  -44.7310   19.0790 N.3   152  CYS152     -0.1235
    120  CA       -14.1570  -43.3590   18.7610 C.3   152  CYS152      0.1677
    121  C        -13.9150  -42.5010   19.9880 C.2   152  CYS152      0.2270
    122  O        -14.0800  -41.2840   19.8750 O.2   152  CYS152     -0.2867
    123  CB       -15.1000  -42.6240   17.8170 C.3   152  CYS152      0.0956
    124  SG       -15.2490  -43.4980   16.2410 S.3   152  CYS152     -0.0801
    125  N        -11.2490  -39.8930   20.6050 N.3   155  LEU155     -0.1231
    126  CA       -11.5110  -38.8700   19.5770 C.3   155  LEU155      0.1693
    127  C        -12.6360  -37.9860   20.0760 C.2   155  LEU155      0.2591
    128  O        -12.4190  -36.7860   20.1280 O.2   155  LEU155     -0.2718
    129  CB       -12.0200  -39.5050   18.3110 C.3   155  LEU155      0.0284
    130  CG       -10.9070  -39.5460   17.2900 C.3   155  LEU155      0.0019
    131  CD1      -11.3950  -40.1740   15.9930 C.3   155  LEU155      0.0001
    132  CD2      -10.4180  -38.1320   17.0130 C.3   155  LEU155      0.0001
    133  N        -13.7040  -38.6230   20.5490 N.am  156  MET156     -0.1979
    134  CA       -14.7760  -37.8340   21.1310 C.3   156  MET156      0.1605
    135  C        -14.3340  -36.9930   22.2960 C.2   156  MET156      0.2287
    136  O        -14.7940  -35.8460   22.3680 O.2   156  MET156     -0.2864
    137  CB       -15.9950  -38.6240   21.5760 C.3   156  MET156      0.0413
    138  CG       -16.6820  -39.2470   20.3510 C.3   156  MET156      0.0598
    139  SD       -16.9970  -38.1380   18.9730 S.3   156  MET156     -0.1393
    140  CE       -17.1790  -39.4330   17.7300 C.3   156  MET156      0.0692
@<TRIPOS>BOND
     1    52    51    2
     2    53    51   am
     3    51    50    1
     4    13    11   am
     5    50    47    1
     6    49    48    2
     7    12    11    2
     8    11    10    1
     9    47    48    1
    10    47    46    1
    11    28    27    1
    12    28    29    1
    13    27    24    1
    14    29    30    1
    15    37    36   ar
    16    48    54   am
    17   102   101    1
    18    10     7    1
    19   114   112    1
    20    26    25    2
    21    25    24    1
    22    25    31   am
    23     7     6    1
    24     7     8    1
    25    24    23    1
    26    36    38   ar
    27    36    35    1
    28    89    90    1
    29    54    55    1
    30    90    91    1
    31    90    93    1
    32     9     8    2
    33    31    32    1
    34   101   103    1
    35   101    98    1
    36    97    91   am
    37    97    98    1
    38    55    56    1
    39    55    58    1
    40    32    35    1
    41    32    33    1
    42    91    92    2
    43   112   113    1
    44   112   111    2
    45    57    56    2
    46     8    14   am
    47    59    58    1
    48    59    60    1
    49    98    99    1
    50    34    33    2
    51    94    93    1
    52    94    96    1
    53    93    95    1
    54    61    60    1
    55    61    62    2
    56    33    39   am
    57   111   110    1
    58    64    62    1
    59    62    63    1
    60    14    15    1
    61    99   100    2
    62    99   104   am
    63    39    40    1
    64    42    41    2
    65    41    40    1
    66   110   109    1
    67    15    16    1
    68    15    18    1
    69    81    79   ar
    70   104   105    1
    71    17    16    2
    72     4     3    2
    73    40    43    1
    74    85    84    2
    75     1     2    1
    76   109   108    1
    77     2     3    1
    78     2     5    1
    79    84    83    1
    80    77    76    2
    81    79    78    1
    82    79    80   ar
    83    19    18    1
    84    19    20    1
    85   107   106    2
    86   105   108    1
    87   105   106    1
    88    43    45    1
    89    43    44    1
    90    78    75    1
    91   106   115   am
    92    76    82   am
    93    76    75    1
    94    83    82    1
    95    83    86    1
    96    68    67    2
    97    66    65    1
    98    66    67    1
    99    66    69    1
   100    20    21    1
   101    75    74    1
   102    21    22    1
   103    67    70   am
   104   115   116    1
   105    74    72   am
   106    86    87    1
   107    86    88    1
   108   131   130    1
   109   116   117    1
   110   124   123    1
   111    70    71    1
   112    72    73    2
   113    72    71    1
   114   132   130    1
   115   130   129    1
   116   117   118    2
   117   140   139    1
   118   123   120    1
   119   129   126    1
   120   120   119    1
   121   120   121    1
   122   139   138    1
   123   126   127    1
   124   126   125    1
   125   122   121    2
   126   127   128    2
   127   127   133   am
   128   138   137    1
   129   133   134    1
   130   134   137    1
   131   134   135    1
   132   135   136    2
