@<TRIPOS>MOLECULE
tmp/1cpcB00.pdb
 203 191 0 0 0
SMALL
GASTEIGER

@<TRIPOS>ATOM
      1  N        -29.9770  -20.1090   22.1340 N.3    59  LEU59      -0.1245
      2  CA       -29.3630  -19.0770   22.9620 C.3    59  LEU59       0.1561
      3  C        -30.3300  -17.9090   23.0770 C.2    59  LEU59       0.2260
      4  O        -30.5130  -17.3680   24.1540 O.2    59  LEU59      -0.2867
      5  CB       -28.0590  -18.5810   22.2900 C.3    59  LEU59       0.0270
      6  CG       -27.4340  -17.4300   23.0790 C.3    59  LEU59       0.0019
      7  CD1      -27.0790  -17.9000   24.4860 C.3    59  LEU59       0.0001
      8  CD2      -26.2230  -16.8450   22.3530 C.3    59  LEU59       0.0001
      9  N        -30.5810  -10.5220   24.9350 N.3    66  LEU66      -0.1245
     10  CA       -29.5120  -10.1940   23.9690 C.3    66  LEU66       0.1561
     11  C        -30.1690   -9.6720   22.7060 C.2    66  LEU66       0.2260
     12  O        -29.5250   -8.8430   22.0620 O.2    66  LEU66      -0.2867
     13  CB       -28.8160  -11.4880   23.4870 C.3    66  LEU66       0.0270
     14  CG       -28.0840  -12.1980   24.6400 C.3    66  LEU66       0.0019
     15  CD1      -27.6650  -13.6110   24.1990 C.3    66  LEU66       0.0001
     16  CD2      -26.9120  -11.3240   25.1750 C.3    66  LEU66       0.0001
     17  N        -27.0840   -8.2830   20.7520 N.3    72  ALA72      -0.1245
     18  CA       -27.3030   -8.8610   19.4260 C.3    72  ALA72       0.1562
     19  C        -28.5770   -8.3260   18.7550 C.2    72  ALA72       0.2260
     20  O        -29.1380   -8.9110   17.8330 O.2    72  ALA72      -0.2867
     21  CB       -27.2910  -10.3880   19.5420 C.3    72  ALA72       0.0290
     22  N        -26.7740   -5.5880   11.8480 N.3    76  ARG76      -0.1231
     23  CA       -25.2700   -5.7110   11.8470 C.3    76  ARG76       0.1694
     24  C        -24.7700   -6.4790   13.0540 C.2    76  ARG76       0.2591
     25  O        -23.9160   -7.3420   12.8890 O.2    76  ARG76      -0.2718
     26  CB       -24.5830   -4.3160   11.8110 C.3    76  ARG76       0.0321
     27  CG       -23.0470   -4.3640   11.7670 C.3    76  ARG76       0.0489
     28  CD       -22.4530   -2.9620   12.0050 C.3    76  ARG76       0.2205
     29  NE       -22.9060   -2.4560   13.3080 N.pl3  76  ARG76      -0.0865
     30  CZ       -22.0730   -2.2370   14.3070 C.cat  76  ARG76       0.5346
     31  NH1      -20.7900   -2.5070   14.1690 N.pl3  76  ARG76       0.1354
     32  NH2      -22.5310   -1.8720   15.4900 N.pl3  76  ARG76       0.1354
     33  N        -25.3690   -6.2640   14.2140 N.am   77  ARG77      -0.1980
     34  CA       -24.9320   -7.0060   15.4200 C.3    77  ARG77       0.1597
     35  C        -25.2860   -8.5160   15.4200 C.2    77  ARG77       0.2287
     36  O        -24.4540   -9.3690   15.7270 O.2    77  ARG77      -0.2864
     37  CB       -25.3450   -6.3320   16.7570 C.3    77  ARG77       0.0334
     38  CG       -24.6400   -4.9420   16.8310 C.3    77  ARG77       0.0492
     39  CD       -24.3420   -4.3900   18.2450 C.3    77  ARG77       0.2205
     40  NE       -25.5460   -4.2370   19.0690 N.pl3  77  ARG77      -0.0865
     41  CZ       -26.2630   -3.0920   19.1620 C.cat  77  ARG77       0.5346
     42  NH1      -25.9640   -2.0860   18.3650 N.pl3  77  ARG77       0.1354
     43  NH2      -27.3630   -2.9920   19.9300 N.pl3  77  ARG77       0.1354
     44  N        -22.9980  -10.1180   12.9950 N.3    80  ALA80      -0.1231
     45  CA       -21.6940  -10.3300   13.6430 C.3    80  ALA80       0.1694
     46  C        -21.6810  -11.5120   14.5980 C.2    80  ALA80       0.2592
     47  O        -20.6960  -12.2620   14.6370 O.2    80  ALA80      -0.2718
     48  CB       -21.1020   -9.1040   14.3160 C.3    80  ALA80       0.0304
     49  N        -22.7480  -11.6300   15.3730 N.am   81  CYS81      -0.1970
     50  CA       -22.8030  -12.7350   16.3040 C.3    81  CYS81       0.1712
     51  C        -22.8370  -14.1160   15.6200 C.2    81  CYS81       0.2296
     52  O        -22.1810  -15.0610   16.0750 O.2    81  CYS81      -0.2864
     53  CB       -24.0000  -12.4670   17.2220 C.3    81  CYS81       0.0983
     54  SG       -24.4110  -13.8000   18.3610 S.3    81  CYS81      -0.0798
     55  N        -21.7830  -14.7800   12.6300 N.3    83  ARG83      -0.1231
     56  CA       -20.4470  -14.8630   12.0140 C.3    83  ARG83       0.1694
     57  C        -19.4440  -15.4310   13.0450 C.2    83  ARG83       0.2592
     58  O        -18.6700  -16.3170   12.6910 O.2    83  ARG83      -0.2718
     59  CB       -19.9740  -13.4650   11.5110 C.3    83  ARG83       0.0321
     60  CG       -18.5610  -13.5390   10.8610 C.3    83  ARG83       0.0489
     61  CD       -17.7760  -12.1910   10.9510 C.3    83  ARG83       0.2205
     62  NE       -17.6030  -11.8350   12.3780 N.pl3  83  ARG83      -0.0865
     63  CZ       -17.6400  -10.5800   12.8330 C.cat  83  ARG83       0.5346
     64  NH1      -17.8770   -9.5530   11.9980 N.pl3  83  ARG83       0.1354
     65  NH2      -17.4090  -10.3780   14.1180 N.pl3  83  ARG83       0.1354
     66  N        -19.5150  -14.9630   14.3200 N.am   84  ASP84      -0.1960
     67  CA       -18.5530  -15.3790   15.3640 C.3    84  ASP84       0.1840
     68  C        -18.7330  -16.8450   15.6870 C.2    84  ASP84       0.2621
     69  O        -17.7270  -17.5450   15.8150 O.2    84  ASP84      -0.2715
     70  CB       -18.8240  -14.6100   16.6710 C.3    84  ASP84       0.1450
     71  CG       -18.0920  -13.2490   16.5480 C.2    84  ASP84       0.3671
     72  OD1      -17.5980  -12.8760   15.4510 O.co2  84  ASP84      -0.2456
     73  OD2      -18.0140  -12.5530   17.5750 O.co2  84  ASP84      -0.2456
     74  N        -20.0050  -17.1960   15.7700 N.am   85  MET85      -0.1977
     75  CA       -20.3090  -18.6480   15.9800 C.3    85  MET85       0.1605
     76  C        -19.7800  -19.5100   14.8240 C.2    85  MET85       0.2287
     77  O        -19.1200  -20.5220   15.0770 O.2    85  MET85      -0.2864
     78  CB       -21.7700  -18.9170   16.2280 C.3    85  MET85       0.0413
     79  CG       -22.0980  -18.5120   17.6910 C.3    85  MET85       0.0598
     80  SD       -23.8740  -18.5640   17.9300 S.3    85  MET85      -0.1393
     81  CE       -23.8670  -20.3540   18.3330 C.3    85  MET85       0.0692
     82  N        -17.2830  -18.8590   12.8890 N.3    87  ILE87      -0.1231
     83  CA       -15.8030  -18.8100   12.8860 C.3    87  ILE87       0.1692
     84  C        -15.2760  -19.7860   13.9540 C.2    87  ILE87       0.2591
     85  O        -14.2570  -20.4780   13.7840 O.2    87  ILE87      -0.2718
     86  CB       -15.3330  -17.3500   13.2090 C.3    87  ILE87       0.0266
     87  CG1      -15.5800  -16.3320   12.0510 C.3    87  ILE87       0.0019
     88  CG2      -13.9040  -17.2550   13.7310 C.3    87  ILE87       0.0020
     89  CD1      -15.4150  -14.8440   12.4570 C.3    87  ILE87       0.0001
     90  N        -15.8980  -19.7700   15.0930 N.am   88  ILE88      -0.1980
     91  CA       -15.3340  -20.5880   16.1990 C.3    88  ILE88       0.1595
     92  C        -15.4980  -22.0660   15.8370 C.2    88  ILE88       0.2287
     93  O        -14.5360  -22.8000   15.9780 O.2    88  ILE88      -0.2864
     94  CB       -16.0480  -20.3360   17.5770 C.3    88  ILE88       0.0276
     95  CG1      -15.7250  -18.9350   18.2160 C.3    88  ILE88       0.0022
     96  CG2      -15.8460  -21.5060   18.5600 C.3    88  ILE88       0.0022
     97  CD1      -16.6700  -18.5050   19.3840 C.3    88  ILE88       0.0001
     98  N        -15.5530  -23.3680   12.7560 N.3    90  ARG90      -0.1231
     99  CA       -14.5820  -23.6410   11.7180 C.3    90  ARG90       0.1694
    100  C        -13.2060  -23.9190   12.3270 C.2    90  ARG90       0.2592
    101  O        -12.6330  -24.9610   12.0480 O.2    90  ARG90      -0.2718
    102  CB       -14.5380  -22.4260   10.7710 C.3    90  ARG90       0.0321
    103  CG       -13.5140  -22.5830    9.6430 C.3    90  ARG90       0.0489
    104  CD       -13.8100  -21.6850    8.4590 C.3    90  ARG90       0.2205
    105  NE       -13.7410  -20.2560    8.8450 N.pl3  90  ARG90      -0.0865
    106  CZ       -12.6560  -19.5070    8.7790 C.cat  90  ARG90       0.5346
    107  NH1      -11.4960  -19.9740    8.3190 N.pl3  90  ARG90       0.1354
    108  NH2      -12.6960  -18.2510    9.2200 N.pl3  90  ARG90       0.1354
    109  N        -12.7440  -23.0920   13.2340 N.am   91  TYR91      -0.1976
    110  CA       -11.4070  -23.3620   13.8150 C.3    91  TYR91       0.1639
    111  C        -11.3700  -24.5350   14.8000 C.2    91  TYR91       0.2290
    112  O        -10.3260  -25.1630   14.9160 O.2    91  TYR91      -0.2864
    113  CB       -10.8680  -22.1220   14.5490 C.3    91  TYR91       0.0560
    114  CG       -10.3530  -21.0700   13.5570 C.ar   91  TYR91      -0.0198
    115  CD1       -9.0950  -21.2270   13.0290 C.ar   91  TYR91      -0.0009
    116  CD2      -11.1150  -19.9690   13.2140 C.ar   91  TYR91      -0.0009
    117  CE1       -8.6000  -20.3130   12.1410 C.ar   91  TYR91       0.0417
    118  CE2      -10.5990  -19.0200   12.3530 C.ar   91  TYR91       0.0417
    119  CZ        -9.3440  -19.2090   11.8070 C.ar   91  TYR91       0.1957
    120  OH        -8.8640  -18.3540   10.8760 O.3    91  TYR91      -0.2866
    121  N         -4.9700  -18.5550   16.0180 N.3   107  ARG107     -0.1231
    122  CA        -5.7200  -17.8160   14.9880 C.3   107  ARG107      0.1694
    123  C         -7.0710  -17.4040   15.5190 C.2   107  ARG107      0.2592
    124  O         -7.7830  -16.7050   14.8050 O.2   107  ARG107     -0.2718
    125  CB        -5.8980  -18.5990   13.6550 C.3   107  ARG107      0.0321
    126  CG        -4.6220  -18.5050   12.7820 C.3   107  ARG107      0.0489
    127  CD        -4.3760  -19.7210   11.8410 C.3   107  ARG107      0.2205
    128  NE        -3.0420  -19.6490   11.1670 N.pl3 107  ARG107     -0.0865
    129  CZ        -2.6930  -20.0010    9.8890 C.cat 107  ARG107      0.5346
    130  NH1       -3.5240  -20.3200    8.8640 N.pl3 107  ARG107      0.1354
    131  NH2       -1.3920  -20.0300    9.6510 N.pl3 107  ARG107      0.1354
    132  N         -7.5290  -18.0420   16.5470 N.am  108  CYS108     -0.1970
    133  CA        -8.9360  -17.7540   16.8330 C.3   108  CYS108      0.1712
    134  C         -9.1330  -17.1380   18.2250 C.2   108  CYS108      0.2296
    135  O         -9.7050  -16.0530   18.3200 O.2   108  CYS108     -0.2864
    136  CB        -9.8280  -18.9790   16.6210 C.3   108  CYS108      0.0983
    137  SG       -11.5780  -18.7330   17.0230 S.3   108  CYS108     -0.0798
    138  N         -9.4450  -12.9130   22.1730 N.3   112  LEU112     -0.1245
    139  CA       -10.9010  -12.8700   21.9950 C.3   112  LEU112      0.1561
    140  C        -11.6130  -12.1970   23.1730 C.2   112  LEU112      0.2260
    141  O        -12.4130  -11.2710   22.9790 O.2   112  LEU112     -0.2867
    142  CB       -11.5040  -14.2920   21.8720 C.3   112  LEU112      0.0270
    143  CG       -12.3490  -14.4580   20.5830 C.3   112  LEU112      0.0019
    144  CD1      -13.2150  -15.7320   20.6110 C.3   112  LEU112      0.0001
    145  CD2      -13.1510  -13.2100   20.1600 C.3   112  LEU112      0.0001
    146  N        -11.3190   -8.6770   23.2950 N.3   115  THR115     -0.1203
    147  CA       -12.1610   -8.0470   22.2400 C.3   115  THR115      0.1994
    148  C        -13.6070   -7.8820   22.6770 C.2   115  THR115      0.2617
    149  O        -14.1770   -6.8070   22.5370 O.2   115  THR115     -0.2717
    150  CB       -12.1550   -8.8270   20.8990 C.3   115  THR115      0.1784
    151  OG1      -10.8240   -8.7560   20.3690 O.3   115  THR115     -0.2211
    152  CG2      -13.2320   -8.3420   19.8870 C.3   115  THR115      0.0376
    153  N        -14.1440   -8.9150   23.2460 N.am  116  TYR116     -0.1975
    154  CA       -15.4930   -8.7910   23.7320 C.3   116  TYR116      0.1639
    155  C        -15.6240   -7.8090   24.9020 C.2   116  TYR116      0.2290
    156  O        -16.5800   -7.0590   24.9290 O.2   116  TYR116     -0.2864
    157  CB       -15.8490  -10.1890   24.1910 C.3   116  TYR116      0.0560
    158  CG       -16.1080  -11.0780   22.9610 C.ar  116  TYR116     -0.0198
    159  CD1      -16.5440  -10.5310   21.7580 C.ar  116  TYR116     -0.0009
    160  CD2      -15.9740  -12.4490   23.1180 C.ar  116  TYR116     -0.0009
    161  CE1      -16.9020  -11.3990   20.7050 C.ar  116  TYR116      0.0417
    162  CE2      -16.2970  -13.3060   22.0720 C.ar  116  TYR116      0.0417
    163  CZ       -16.7740  -12.7890   20.8690 C.ar  116  TYR116      0.1957
    164  OH       -17.0520  -13.6750   19.8290 O.3   116  TYR116     -0.2866
    165  N        -15.7190   -4.6070   23.5210 N.3   119  LEU119     -0.1245
    166  CA       -16.9840   -4.3780   22.8080 C.3   119  LEU119      0.1561
    167  C        -18.2160   -4.2690   23.6960 C.2   119  LEU119      0.2260
    168  O        -19.1930   -3.6570   23.2620 O.2   119  LEU119     -0.2867
    169  CB       -17.2450   -5.4780   21.7770 C.3   119  LEU119      0.0270
    170  CG       -16.3340   -5.3770   20.5360 C.3   119  LEU119      0.0019
    171  CD1      -16.5770   -6.5800   19.6270 C.3   119  LEU119      0.0001
    172  CD2      -16.5010   -4.0590   19.7210 C.3   119  LEU119      0.0001
    173  N        -19.6180   -7.0950   24.5210 N.3   121  THR121     -0.1204
    174  CA       -20.2260   -8.3790   24.2430 C.3   121  THR121      0.1979
    175  C        -20.0680   -9.3080   25.4570 C.2   121  THR121      0.2459
    176  O        -18.9320   -9.4960   25.9050 O.2   121  THR121     -0.2732
    177  CB       -19.4730   -9.0080   23.0900 C.3   121  THR121      0.1783
    178  OG1      -19.5250   -8.1900   21.9170 O.3   121  THR121     -0.2211
    179  CG2      -19.8900  -10.4650   22.8920 C.3   121  THR121      0.0376
    180  N        -21.1890   -9.8450   25.9830 N.am  122  PRO122     -0.2728
    181  CA       -21.1400  -10.7790   27.1300 C.3   122  PRO122      0.1401
    182  C        -20.4780  -12.1240   26.7900 C.2   122  PRO122      0.2269
    183  O        -21.0830  -13.0020   26.1730 O.2   122  PRO122     -0.2865
    184  CB       -22.5930  -10.9190   27.5790 C.3   122  PRO122      0.0296
    185  CG       -23.4360  -10.4410   26.3980 C.3   122  PRO122      0.0237
    186  CD       -22.5430   -9.7160   25.4150 C.3   122  PRO122      0.0939
    187  N        -22.2410  -15.3990   27.6030 N.3   125  SER125     -0.1202
    188  CA       -23.2930  -15.8230   26.6660 C.3   125  SER125      0.2020
    189  C        -22.6640  -16.4540   25.4210 C.2   125  SER125      0.2618
    190  O        -23.3080  -17.2920   24.8060 O.2   125  SER125     -0.2717
    191  CB       -24.0830  -14.6000   26.1600 C.3   125  SER125      0.2103
    192  OG       -24.6330  -13.9690   27.3010 O.3   125  SER125     -0.2182
    193  N        -21.5550  -15.8950   25.0000 N.am  126  VAL126     -0.1979
    194  CA       -20.8080  -16.4690   23.8760 C.3   126  VAL126      0.1595
    195  C        -20.4850  -17.9250   24.2350 C.2   126  VAL126      0.2287
    196  O        -20.5990  -18.8210   23.3980 O.2   126  VAL126     -0.2864
    197  CB       -19.5180  -15.6680   23.5540 C.3   126  VAL126      0.0276
    198  CG1      -18.8400  -16.2770   22.2860 C.3   126  VAL126      0.0022
    199  CG2      -19.8660  -14.1860   23.2450 C.3   126  VAL126      0.0022
    200  N        -23.2950  -20.3160   23.8470 N.3   129  GLY129     -0.1225
    201  CA       -23.5100  -20.5960   22.3960 C.3   129  GLY129      0.1811
    202  C        -22.5370  -21.7140   21.9440 C.2   129  GLY129      0.2280
    203  O        -22.9140  -22.6520   21.2380 O.2   129  GLY129     -0.2866
@<TRIPOS>BOND
     1   107   106    1
     2   104   105    1
     3   104   103    1
     4   106   105    2
     5   106   108    1
     6   130   129    1
     7   103   102    1
     8   131   129    1
     9   129   128    2
    10   102    99    1
    11    60    61    1
    12    60    59    1
    13   120   119    1
    14    61    62    1
    15   128   127    1
    16    59    56    1
    17    99   100    1
    18    99    98    1
    19    27    26    1
    20    27    28    1
    21   119   117   ar
    22   119   118   ar
    23    26    23    1
    24   127   126    1
    25    23    22    1
    26    23    24    1
    27    64    63    1
    28    28    29    1
    29    56    55    1
    30    56    57    1
    31   101   100    2
    32    87    89    1
    33    87    86    1
    34   117   115   ar
    35   100   109   am
    36   118   116   ar
    37    62    63    2
    38    58    57    2
    39   126   125    1
    40    63    65    1
    41    83    82    1
    42    83    86    1
    43    83    84    1
    44    25    24    2
    45    44    45    1
    46   115   114   ar
    47    57    66   am
    48    24    33   am
    49    86    88    1
    50   116   114   ar
    51   109   110    1
    52    29    30    2
    53   114   113    1
    54    45    48    1
    55    45    46    1
    56   125   122    1
    57    85    84    2
    58   110   113    1
    59   110   111    1
    60    84    90   am
    61    31    30    1
    62    33    34    1
    63    30    32    1
    64    66    67    1
    65    46    47    2
    66    46    49   am
    67   111   112    2
    68   124   123    2
    69    76    77    2
    70    76    75    1
    71   122   123    1
    72   122   121    1
    73    90    91    1
    74    67    68    1
    75    67    70    1
    76    49    50    1
    77    34    35    1
    78    34    37    1
    79    35    36    2
    80    72    71   ar
    81   123   132   am
    82    51    52    2
    83    51    50    1
    84    68    74   am
    85    68    69    2
    86    74    75    1
    87    92    93    2
    88    92    91    1
    89    75    78    1
    90    91    94    1
    91    78    79    1
    92    50    53    1
    93   132   133    1
    94    71    70    1
    95    71    73   ar
    96   136   133    1
    97   136   137    1
    98    37    38    1
    99    38    39    1
   100   133   134    1
   101    53    54    1
   102    94    95    1
   103    94    96    1
   104    79    80    1
   105    20    19    2
   106    80    81    1
   107    95    97    1
   108   134   135    2
   109    39    40    1
   110    42    41    1
   111    19    18    1
   112    40    41    2
   113    41    43    1
   114    18    21    1
   115    18    17    1
   116   171   170    1
   117   172   170    1
   118   164   163    1
   119   152   150    1
   120   145   143    1
   121   151   150    1
   122   170   169    1
   123   143   144    1
   124   143   142    1
   125   161   163   ar
   126   161   159   ar
   127   163   162   ar
   128   150   147    1
   129   203   202    2
   130   159   158   ar
   131   169   166    1
   132   142   139    1
   133   178   177    1
   134   202   201    1
   135   139   138    1
   136   139   140    1
   137    12    11    2
   138   162   160   ar
   139     1     2    1
   140   147   148    1
   141   147   146    1
   142   198   197    1
   143     5     2    1
   144     5     6    1
   145     8     6    1
   146   201   200    1
   147   149   148    2
   148   148   153   am
   149    11    10    1
   150   166   165    1
   151   166   167    1
   152   179   177    1
   153   158   160   ar
   154   158   157    1
   155     2     3    1
   156   141   140    2
   157     3     4    2
   158     6     7    1
   159   177   174    1
   160   199   197    1
   161   153   154    1
   162   168   167    2
   163   196   195    2
   164    13    10    1
   165    13    14    1
   166   197   194    1
   167   154   157    1
   168   154   155    1
   169   194   195    1
   170   194   193    1
   171    10     9    1
   172    15    14    1
   173   174   173    1
   174   174   175    1
   175    14    16    1
   176   190   189    2
   177   155   156    2
   178   193   189   am
   179   186   180    1
   180   186   185    1
   181   189   188    1
   182   175   176    2
   183   175   180   am
   184   180   181    1
   185   191   188    1
   186   191   192    1
   187   183   182    2
   188   185   184    1
   189   188   187    1
   190   182   181    1
   191   181   184    1
