@<TRIPOS>MOLECULE
tmp/1cpfA01.pdb
 101 99 0 0 0
SMALL
GASTEIGER

@<TRIPOS>ATOM
      1  N         -7.3720   54.8990   15.0450 N.3   172  HIS172     -0.1226
      2  CA        -8.1730   54.2390   16.0300 C.3   172  HIS172      0.1752
      3  C         -8.6650   52.8980   15.4790 C.2   172  HIS172      0.2596
      4  O         -9.2690   52.1230   16.2060 O.2   172  HIS172     -0.2718
      5  CB        -9.2390   55.1540   16.6350 C.3   172  HIS172      0.0759
      6  CG        -8.5920   55.7690   17.8280 C.ar  172  HIS172      0.0818
      7  ND1       -9.2950   56.5680   18.6930 N.ar  172  HIS172     -0.2268
      8  CD2       -7.3100   55.6520   18.2770 C.ar  172  HIS172      0.1154
      9  CE1       -8.4410   56.9400   19.6320 C.ar  172  HIS172      0.1986
     10  NE2       -7.2380   56.4000   19.4130 N.ar  172  HIS172     -0.2212
     11  N         -8.3890   52.5940   14.1910 N.am  173  ALA173     -0.1966
     12  CA        -8.7610   51.3120   13.6030 C.3   173  ALA173      0.1728
     13  C         -7.8970   50.2190   14.2500 C.2   173  ALA173      0.2616
     14  O         -8.2720   49.0430   14.3730 O.2   173  ALA173     -0.2715
     15  CB        -8.4460   51.2660   12.1100 C.3   173  ALA173      0.0334
     16  N         -6.6830   50.6190   14.6730 N.am  174  LEU174     -0.1963
     17  CA        -5.6520   49.7660   15.2790 C.3   174  LEU174      0.1728
     18  C         -5.6870   49.4940   16.7740 C.2   174  LEU174      0.2617
     19  O         -5.9830   50.3790   17.5660 O.2   174  LEU174     -0.2715
     20  CB        -4.2530   50.3360   14.9740 C.3   174  LEU174      0.0311
     21  CG        -4.0380   50.7420   13.5350 C.3   174  LEU174      0.0022
     22  CD1       -2.7140   51.5010   13.4590 C.3   174  LEU174      0.0001
     23  CD2       -3.9840   49.5060   12.6370 C.3   174  LEU174      0.0001
     24  N         -5.3410   48.2640   17.1590 N.am  175  GLY175     -0.1940
     25  CA        -5.3040   47.9110   18.5510 C.3   175  GLY175      0.2014
     26  C         -6.6510   47.8570   19.2200 C.2   175  GLY175      0.2639
     27  O         -7.6730   47.5010   18.6340 O.2   175  GLY175     -0.2714
     28  N         -6.5950   48.2200   20.4810 N.am  176  LYS176     -0.1963
     29  CA        -7.7790   48.1920   21.2690 C.3   176  LYS176      0.1728
     30  C         -7.5600   48.9550   22.5760 C.2   176  LYS176      0.2616
     31  O         -6.4540   49.4200   22.8090 O.2   176  LYS176     -0.2715
     32  CB        -7.9790   46.7100   21.5370 C.3   176  LYS176      0.0311
     33  CG        -7.0770   46.2550   22.6610 C.3   176  LYS176      0.0038
     34  CD        -6.8650   44.7550   22.6630 C.3   176  LYS176      0.0206
     35  CE        -7.9140   43.9980   23.4610 C.3   176  LYS176      0.1093
     36  NZ        -8.1650   44.5230   24.8150 N.3   176  LYS176     -0.1314
     37  N         -8.6100   49.1140   23.4100 N.am  177  THR177     -0.1951
     38  CA        -8.5250   49.7890   24.7000 C.3   177  THR177      0.1897
     39  C         -8.3270   48.6590   25.6900 C.2   177  THR177      0.2313
     40  O         -8.6910   47.5310   25.3730 O.2   177  THR177     -0.2863
     41  CB        -9.7720   50.5900   25.1010 C.3   177  THR177      0.1794
     42  OG1      -10.8950   49.7280   25.0080 O.3   177  THR177     -0.2208
     43  CG2       -9.9260   51.7780   24.1740 C.3   177  THR177      0.0378
     44  N        -12.1010   46.9050   24.7280 N.3   186  GLY186     -0.1210
     45  CA       -12.5500   46.4220   23.4280 C.3   186  GLY186      0.1940
     46  C        -11.8550   46.9890   22.1950 C.2   186  GLY186      0.2454
     47  O        -11.3110   48.0840   22.2280 O.2   186  GLY186     -0.2732
     48  N        -11.8850   46.2300   21.1030 N.am  187  PRO187     -0.2717
     49  CA       -11.3120   46.5750   19.8040 C.3   187  PRO187      0.1535
     50  C        -12.3180   47.4300   19.0460 C.2   187  PRO187      0.2599
     51  O        -13.4950   47.3860   19.3890 O.2   187  PRO187     -0.2715
     52  CB       -11.3600   45.2590   19.0280 C.3   187  PRO187      0.0310
     53  CG       -12.4950   44.4630   19.6490 C.3   187  PRO187      0.0237
     54  CD       -12.6690   44.9730   21.0710 C.3   187  PRO187      0.0939
     55  N        -11.9000   48.1850   18.0180 N.am  188  GLY188     -0.1955
     56  CA       -12.8360   49.0140   17.2710 C.3   188  GLY188      0.1869
     57  C        -13.2670   48.4740   15.9190 C.2   188  GLY188      0.2309
     58  O        -13.8840   49.1820   15.1180 O.2   188  GLY188     -0.2863
     59  N        -12.0120   52.0880   10.3570 N.3   199  PHE199     -0.1241
     60  CA       -12.5690   52.9590   11.4090 C.3   199  PHE199      0.1605
     61  C        -13.7860   53.7750   10.9900 C.2   199  PHE199      0.2264
     62  O        -14.8090   53.8280   11.6680 O.2   199  PHE199     -0.2867
     63  CB       -11.4770   53.7810   12.1150 C.3   199  PHE199      0.0534
     64  CG       -11.8800   54.9200   13.0690 C.ar  199  PHE199     -0.0203
     65  CD1      -12.0230   56.2070   12.5910 C.ar  199  PHE199     -0.0042
     66  CD2      -12.0290   54.6950   14.4290 C.ar  199  PHE199     -0.0042
     67  CE1      -12.3390   57.2650   13.4370 C.ar  199  PHE199     -0.0003
     68  CE2      -12.3590   55.7270   15.3130 C.ar  199  PHE199     -0.0003
     69  CZ       -12.5120   57.0350   14.8100 C.ar  199  PHE199     -0.0000
     70  N        -16.2870   48.6660   19.8640 N.3   227  MET227     -0.1230
     71  CA       -16.5500   49.7950   20.7420 C.3   227  MET227      0.1702
     72  C        -15.9680   51.0790   20.1300 C.2   227  MET227      0.2592
     73  O        -15.1690   51.0370   19.2020 O.2   227  MET227     -0.2718
     74  CB       -16.0040   49.5470   22.1780 C.3   227  MET227      0.0401
     75  CG       -14.4840   49.4550   22.2700 C.3   227  MET227      0.0596
     76  SD       -13.6180   51.0680   22.2750 S.3   227  MET227     -0.1393
     77  CE       -13.8550   51.5950   23.9680 C.3   227  MET227      0.0692
     78  N        -16.3580   52.2270   20.6580 N.am  228  MET228     -0.1965
     79  CA       -15.8400   53.5060   20.1770 C.3   228  MET228      0.1736
     80  C        -15.7980   54.3780   21.3780 C.2   228  MET228      0.2616
     81  O        -16.7360   54.3190   22.1530 O.2   228  MET228     -0.2715
     82  CB       -16.7880   54.2780   19.2490 C.3   228  MET228      0.0427
     83  CG       -16.8830   53.6870   17.8730 C.3   228  MET228      0.0599
     84  SD       -15.4550   54.1580   16.8700 S.3   228  MET228     -0.1393
     85  CE       -15.5490   53.0750   15.4180 C.3   228  MET228      0.0692
     86  N        -14.7800   55.2070   21.5140 N.am  229  LEU229     -0.1977
     87  CA       -14.7730   56.0970   22.6680 C.3   229  LEU229      0.1596
     88  C        -15.7070   57.2580   22.3390 C.2   229  LEU229      0.2287
     89  O        -16.0490   57.4490   21.1820 O.2   229  LEU229     -0.2864
     90  CB       -13.3870   56.7320   22.7980 C.3   229  LEU229      0.0297
     91  CG       -12.2740   55.7400   23.0190 C.3   229  LEU229      0.0022
     92  CD1      -10.9380   56.3720   22.6120 C.3   229  LEU229      0.0001
     93  CD2      -12.2730   55.2210   24.4570 C.3   229  LEU229      0.0001
     94  N        -14.4520   59.3470   19.9410 N.3   232  ASP232     -0.1239
     95  CA       -14.5140   58.7960   18.5940 C.3   232  ASP232      0.1674
     96  C        -15.8910   59.0300   18.0230 C.2   232  ASP232      0.2266
     97  O        -16.0460   59.4800   16.8990 O.2   232  ASP232     -0.2867
     98  CB       -14.2190   57.2890   18.4280 C.3   232  ASP232      0.1410
     99  CG       -12.8730   56.8340   18.8710 C.2   232  ASP232      0.3668
    100  OD1      -11.8520   57.3840   18.5300 O.co2 232  ASP232     -0.2456
    101  OD2      -12.9320   55.7200   19.5690 O.co2 232  ASP232     -0.2456
@<TRIPOS>BOND
     1    59    60    1
     2    61    60    1
     3    61    62    2
     4    60    63    1
     5    15    12    1
     6    63    64    1
     7    65    64   ar
     8    65    67   ar
     9    23    21    1
    10    64    66   ar
    11    67    69   ar
    12    22    21    1
    13    21    20    1
    14    12    11    1
    15    12    13    1
    16    11     3   am
    17    13    14    2
    18    13    16   am
    19    66    68   ar
    20    16    17    1
    21    69    68   ar
    22    20    17    1
    23     1     2    1
    24    58    57    2
    25    17    18    1
    26    85    84    1
    27     3     2    1
    28     3     4    2
    29    57    56    1
    30     2     5    1
    31     5     6    1
    32    18    24   am
    33    18    19    2
    34    84    83    1
    35    97    96    2
    36    24    25    1
    37    56    55    1
    38     6     8   ar
    39     6     7   ar
    40    83    82    1
    41    55    50   am
    42    96    95    1
    43     8    10   ar
    44    98    95    1
    45    98    99    1
    46   100    99   ar
    47    25    26    1
    48    95    94    1
    49    27    26    2
    50     7     9   ar
    51    99   101   ar
    52    52    53    1
    53    52    49    1
    54    50    51    2
    55    50    49    1
    56    73    72    2
    57    26    28   am
    58    82    79    1
    59    10     9   ar
    60    53    54    1
    61    49    48    1
    62    70    71    1
    63    72    78   am
    64    72    71    1
    65    79    78    1
    66    79    80    1
    67    28    29    1
    68    71    74    1
    69    54    48    1
    70    48    46   am
    71    89    88    2
    72    29    32    1
    73    29    30    1
    74    80    86   am
    75    80    81    2
    76    86    87    1
    77    32    33    1
    78    74    75    1
    79    46    47    2
    80    46    45    1
    81    75    76    1
    82    76    77    1
    83    88    87    1
    84    30    31    2
    85    30    37   am
    86    92    91    1
    87    33    34    1
    88    34    35    1
    89    87    90    1
    90    90    91    1
    91    91    93    1
    92    37    38    1
    93    45    44    1
    94    35    36    1
    95    43    41    1
    96    38    41    1
    97    38    39    1
    98    42    41    1
    99    40    39    2
